/*---------------------------------------------------------------------------*\
| =========                 |                                                 |
| \\      /  F ield         | OpenFOAM: The Open Source CFD Toolbox           |
|  \\    /   O peration     | Version:  2.3.1                                 |
|   \\  /    A nd           | Web:      www.OpenFOAM.org                      |
|    \\/     M anipulation  |                                                 |
\*---------------------------------------------------------------------------*/
Build  : 2.3.1-bcfaaa7b8660
Exec   : surfaceFeatureExtract
Date   : Sep 24 2015
Time   : 07:26:13
Host   : "cissy.4energy.solutions"
PID    : 62711
Case   : /media/cissy/cfd/OpenFOAM/root-2.3.1/run/tutorials/heatTransfer/buoyantBoussinesqSimpleFoam/benchmark_smartset/scalarTransportFoamTest/2D/1acu1rack
nProcs : 1
sigFpe : Enabling floating point exception trapping (FOAM_SIGFPE).
fileModificationChecking : Monitoring run-time modified files using timeStampMaster
allowSystemOperations : Allowing user-supplied system call operations

// * * * * * * * * * * * * * * * * * * * * * * * * * * * * * * * * * * * * * //
Create time

Reading surfaceFeatureExtractDict

Surface            : "objects.stl"


Feature line extraction is only valid on closed manifold surfaces.
Statistics:
Triangles    : 24
Vertices     : 16
Bounding Box : (32.6 9.4 0.8) (34.6 12.2 2.8)


Constructing feature set from included angle 150
Selecting edges purely based on geometric tests: no
Removing all non-manifold edges (edges with > 2 connected faces) unless they cross multiple regions

Initial feature set:
    feature points : 16
    feature edges  : 26
    of which
        region edges   : 16
        external edges : 7
        internal edges : 3


Final feature set:
    points : 16
    of which
        convex             : 12
        concave            : 0
        mixed              : 4
        non-feature        : 0
    edges  : 26
    of which
        external edges     : 24
        internal edges     : 2
        flat edges         : 0
        open edges         : 0
        multiply connected : 0

Writing extendedFeatureEdgeMesh to "/media/cissy/cfd/OpenFOAM/root-2.3.1/run/tutorials/heatTransfer/buoyantBoussinesqSimpleFoam/benchmark_smartset/scalarTransportFoamTest/2D/1acu1rack/constant/extendedFeatureEdgeMesh/objects.extendedFeatureEdgeMesh"

Writing extendedEdgeMesh components to "/media/cissy/cfd/OpenFOAM/root-2.3.1/run/tutorials/heatTransfer/buoyantBoussinesqSimpleFoam/benchmark_smartset/scalarTransportFoamTest/2D/1acu1rack/constant/extendedFeatureEdgeMesh/objects"
Writing convex feature points to "/media/cissy/cfd/OpenFOAM/root-2.3.1/run/tutorials/heatTransfer/buoyantBoussinesqSimpleFoam/benchmark_smartset/scalarTransportFoamTest/2D/1acu1rack/constant/extendedFeatureEdgeMesh/objects_convexFeaturePts.obj"
Writing concave feature points to "/media/cissy/cfd/OpenFOAM/root-2.3.1/run/tutorials/heatTransfer/buoyantBoussinesqSimpleFoam/benchmark_smartset/scalarTransportFoamTest/2D/1acu1rack/constant/extendedFeatureEdgeMesh/objects_concaveFeaturePts.obj"
Writing mixed feature points to "/media/cissy/cfd/OpenFOAM/root-2.3.1/run/tutorials/heatTransfer/buoyantBoussinesqSimpleFoam/benchmark_smartset/scalarTransportFoamTest/2D/1acu1rack/constant/extendedFeatureEdgeMesh/objects_mixedFeaturePts.obj"
Writing mixed feature point structure to "/media/cissy/cfd/OpenFOAM/root-2.3.1/run/tutorials/heatTransfer/buoyantBoussinesqSimpleFoam/benchmark_smartset/scalarTransportFoamTest/2D/1acu1rack/constant/extendedFeatureEdgeMesh/objects_mixedFeaturePtsStructure.obj"
Writing external edges to "/media/cissy/cfd/OpenFOAM/root-2.3.1/run/tutorials/heatTransfer/buoyantBoussinesqSimpleFoam/benchmark_smartset/scalarTransportFoamTest/2D/1acu1rack/constant/extendedFeatureEdgeMesh/objects_externalEdges.obj"
Writing internal edges to "/media/cissy/cfd/OpenFOAM/root-2.3.1/run/tutorials/heatTransfer/buoyantBoussinesqSimpleFoam/benchmark_smartset/scalarTransportFoamTest/2D/1acu1rack/constant/extendedFeatureEdgeMesh/objects_internalEdges.obj"
Writing flat edges to "/media/cissy/cfd/OpenFOAM/root-2.3.1/run/tutorials/heatTransfer/buoyantBoussinesqSimpleFoam/benchmark_smartset/scalarTransportFoamTest/2D/1acu1rack/constant/extendedFeatureEdgeMesh/objects_flatEdges.obj"
Writing open edges to "/media/cissy/cfd/OpenFOAM/root-2.3.1/run/tutorials/heatTransfer/buoyantBoussinesqSimpleFoam/benchmark_smartset/scalarTransportFoamTest/2D/1acu1rack/constant/extendedFeatureEdgeMesh/objects_openEdges.obj"
Writing multiple edges to "/media/cissy/cfd/OpenFOAM/root-2.3.1/run/tutorials/heatTransfer/buoyantBoussinesqSimpleFoam/benchmark_smartset/scalarTransportFoamTest/2D/1acu1rack/constant/extendedFeatureEdgeMesh/objects_multipleEdges.obj"
Writing region edges to "/media/cissy/cfd/OpenFOAM/root-2.3.1/run/tutorials/heatTransfer/buoyantBoussinesqSimpleFoam/benchmark_smartset/scalarTransportFoamTest/2D/1acu1rack/constant/extendedFeatureEdgeMesh/objects_regionEdges.obj"
Writing edge directions to "/media/cissy/cfd/OpenFOAM/root-2.3.1/run/tutorials/heatTransfer/buoyantBoussinesqSimpleFoam/benchmark_smartset/scalarTransportFoamTest/2D/1acu1rack/constant/extendedFeatureEdgeMesh/objects_edgeDirections.obj"

Writing featureEdgeMesh to "/media/cissy/cfd/OpenFOAM/root-2.3.1/run/tutorials/heatTransfer/buoyantBoussinesqSimpleFoam/benchmark_smartset/scalarTransportFoamTest/2D/1acu1rack/constant/triSurface/objects.eMesh"

Surface            : "room_boundary.stl"


Feature line extraction is only valid on closed manifold surfaces.
Statistics:
Triangles    : 8
Vertices     : 8
Bounding Box : (31.81 9.01 0) (35.41 13.21 3.8)


Constructing feature set from included angle 150
Selecting edges purely based on geometric tests: no
Removing all non-manifold edges (edges with > 2 connected faces) unless they cross multiple regions

Initial feature set:
    feature points : 8
    feature edges  : 16
    of which
        region edges   : 8
        external edges : 3
        internal edges : 5


Final feature set:
    points : 8
    of which
        convex             : 0
        concave            : 0
        mixed              : 8
        non-feature        : 0
    edges  : 16
    of which
        external edges     : 7
        internal edges     : 1
        flat edges         : 0
        open edges         : 8
        multiply connected : 0

Writing extendedFeatureEdgeMesh to "/media/cissy/cfd/OpenFOAM/root-2.3.1/run/tutorials/heatTransfer/buoyantBoussinesqSimpleFoam/benchmark_smartset/scalarTransportFoamTest/2D/1acu1rack/constant/extendedFeatureEdgeMesh/room_boundary.extendedFeatureEdgeMesh"

Writing extendedEdgeMesh components to "/media/cissy/cfd/OpenFOAM/root-2.3.1/run/tutorials/heatTransfer/buoyantBoussinesqSimpleFoam/benchmark_smartset/scalarTransportFoamTest/2D/1acu1rack/constant/extendedFeatureEdgeMesh/room_boundary"
Writing convex feature points to "/media/cissy/cfd/OpenFOAM/root-2.3.1/run/tutorials/heatTransfer/buoyantBoussinesqSimpleFoam/benchmark_smartset/scalarTransportFoamTest/2D/1acu1rack/constant/extendedFeatureEdgeMesh/room_boundary_convexFeaturePts.obj"
Writing concave feature points to "/media/cissy/cfd/OpenFOAM/root-2.3.1/run/tutorials/heatTransfer/buoyantBoussinesqSimpleFoam/benchmark_smartset/scalarTransportFoamTest/2D/1acu1rack/constant/extendedFeatureEdgeMesh/room_boundary_concaveFeaturePts.obj"
Writing mixed feature points to "/media/cissy/cfd/OpenFOAM/root-2.3.1/run/tutorials/heatTransfer/buoyantBoussinesqSimpleFoam/benchmark_smartset/scalarTransportFoamTest/2D/1acu1rack/constant/extendedFeatureEdgeMesh/room_boundary_mixedFeaturePts.obj"
Writing mixed feature point structure to "/media/cissy/cfd/OpenFOAM/root-2.3.1/run/tutorials/heatTransfer/buoyantBoussinesqSimpleFoam/benchmark_smartset/scalarTransportFoamTest/2D/1acu1rack/constant/extendedFeatureEdgeMesh/room_boundary_mixedFeaturePtsStructure.obj"
Writing external edges to "/media/cissy/cfd/OpenFOAM/root-2.3.1/run/tutorials/heatTransfer/buoyantBoussinesqSimpleFoam/benchmark_smartset/scalarTransportFoamTest/2D/1acu1rack/constant/extendedFeatureEdgeMesh/room_boundary_externalEdges.obj"
Writing internal edges to "/media/cissy/cfd/OpenFOAM/root-2.3.1/run/tutorials/heatTransfer/buoyantBoussinesqSimpleFoam/benchmark_smartset/scalarTransportFoamTest/2D/1acu1rack/constant/extendedFeatureEdgeMesh/room_boundary_internalEdges.obj"
Writing flat edges to "/media/cissy/cfd/OpenFOAM/root-2.3.1/run/tutorials/heatTransfer/buoyantBoussinesqSimpleFoam/benchmark_smartset/scalarTransportFoamTest/2D/1acu1rack/constant/extendedFeatureEdgeMesh/room_boundary_flatEdges.obj"
Writing open edges to "/media/cissy/cfd/OpenFOAM/root-2.3.1/run/tutorials/heatTransfer/buoyantBoussinesqSimpleFoam/benchmark_smartset/scalarTransportFoamTest/2D/1acu1rack/constant/extendedFeatureEdgeMesh/room_boundary_openEdges.obj"
Writing multiple edges to "/media/cissy/cfd/OpenFOAM/root-2.3.1/run/tutorials/heatTransfer/buoyantBoussinesqSimpleFoam/benchmark_smartset/scalarTransportFoamTest/2D/1acu1rack/constant/extendedFeatureEdgeMesh/room_boundary_multipleEdges.obj"
Writing region edges to "/media/cissy/cfd/OpenFOAM/root-2.3.1/run/tutorials/heatTransfer/buoyantBoussinesqSimpleFoam/benchmark_smartset/scalarTransportFoamTest/2D/1acu1rack/constant/extendedFeatureEdgeMesh/room_boundary_regionEdges.obj"
Writing edge directions to "/media/cissy/cfd/OpenFOAM/root-2.3.1/run/tutorials/heatTransfer/buoyantBoussinesqSimpleFoam/benchmark_smartset/scalarTransportFoamTest/2D/1acu1rack/constant/extendedFeatureEdgeMesh/room_boundary_edgeDirections.obj"

Writing featureEdgeMesh to "/media/cissy/cfd/OpenFOAM/root-2.3.1/run/tutorials/heatTransfer/buoyantBoussinesqSimpleFoam/benchmark_smartset/scalarTransportFoamTest/2D/1acu1rack/constant/triSurface/room_boundary.eMesh"

ExecutionTime = 0.11 s  ClockTime = 0 s

End

