/*---------------------------------------------------------------------------*\
| =========                 |                                                 |
| \\      /  F ield         | OpenFOAM: The Open Source CFD Toolbox           |
|  \\    /   O peration     | Version:  2.3.1                                 |
|   \\  /    A nd           | Web:      www.OpenFOAM.org                      |
|    \\/     M anipulation  |                                                 |
\*---------------------------------------------------------------------------*/
Build  : 2.3.1-bcfaaa7b8660
Exec   : topoSet
Date   : Sep 24 2015
Time   : 07:26:16
Host   : "cissy.4energy.solutions"
PID    : 62715
Case   : /media/cissy/cfd/OpenFOAM/root-2.3.1/run/tutorials/heatTransfer/buoyantBoussinesqSimpleFoam/benchmark_smartset/scalarTransportFoamTest/2D/1acu1rack
nProcs : 1
sigFpe : Enabling floating point exception trapping (FOAM_SIGFPE).
fileModificationChecking : Monitoring run-time modified files using timeStampMaster
allowSystemOperations : Allowing user-supplied system call operations

// * * * * * * * * * * * * * * * * * * * * * * * * * * * * * * * * * * * * * //
Create time

Create polyMesh for time = 0

Reading topoSetDict

Time = 0
    mesh not changed.
Created cellSet floorvent564BBBA61D1156EE76433AB491E144D4
    Applying source boxToCell
    Adding cells with center within boxes 1((33 12.2 0.6) (33.6 12.8 0.8))
    cellSet floorvent564BBBA61D1156EE76433AB491E144D4 now size 72

End

