/*---------------------------------------------------------------------------*\
| =========                 |                                                 |
| \\      /  F ield         | OpenFOAM: The Open Source CFD Toolbox           |
|  \\    /   O peration     | Version:  2.3.1                                 |
|   \\  /    A nd           | Web:      www.OpenFOAM.org                      |
|    \\/     M anipulation  |                                                 |
\*---------------------------------------------------------------------------*/
Build  : 2.3.1-bcfaaa7b8660
Exec   : buoyantBoussinesqSimpleFoam -parallel
Date   : Sep 24 2015
Time   : 07:26:21
Host   : "cissy.4energy.solutions"
PID    : 62723
Case   : /media/cissy/cfd/OpenFOAM/root-2.3.1/run/tutorials/heatTransfer/buoyantBoussinesqSimpleFoam/benchmark_smartset/scalarTransportFoamTest/2D/1acu1rack
nProcs : 7
Slaves : 
6
(
"cissy.4energy.solutions.62724"
"cissy.4energy.solutions.62725"
"cissy.4energy.solutions.62726"
"cissy.4energy.solutions.62727"
"cissy.4energy.solutions.62728"
"cissy.4energy.solutions.62729"
)

Pstream initialized with:
    floatTransfer      : 0
    nProcsSimpleSum    : 0
    commsType          : nonBlocking
    polling iterations : 0
sigFpe : Enabling floating point exception trapping (FOAM_SIGFPE).
fileModificationChecking : Monitoring run-time modified files using timeStampMaster
allowSystemOperations : Allowing user-supplied system call operations

// * * * * * * * * * * * * * * * * * * * * * * * * * * * * * * * * * * * * * //
Create time

Create mesh for time = 0


Reading g
Reading thermophysical properties

Reading field T

Reading field p_rgh

Reading field U

Reading/calculating face flux field phi

Selecting incompressible transport model Newtonian
Creating turbulence model

Selecting RAS turbulence model kEpsilon
kEpsilonCoeffs
{
    Cmu             0.09;
    C1              1.44;
    C2              1.92;
    sigmaEps        1.3;
}

Reading field alphat

Calculating field g.h

Creating finite volume options from "system/fvOptions"

Selecting finite volume options model type explicitPorositySource
    Source: porosity_floorvent564BBBA61D1156EE76433AB491E144D4
    - applying source for all time
    - selecting cells using cellZone floorvent564BBBA61D1156EE76433AB491E144D4
    - selected 72 cell(s) with volume 0.036

Porosity region porosity_floorvent564BBBA61D1156EE76433AB491E144D4:
    selecting model: fixedCoeff
    creating porous zone: floorvent564BBBA61D1156EE76433AB491E144D4

SIMPLE: convergence criteria
    field p_rgh	 tolerance 0.0001
    field U	 tolerance 1e-06
    field T	 tolerance 0.0001
    field "(k|epsilon|omega)"	 tolerance 1e-06


Starting time loop

--> FOAM Warning : 
    From function simpleFunctionObject::simpleFunctionObject
    in file simpleFunctionObject/simpleFunctionObject.C at line 109
    'outputControlMode' not found in AHU_massflow
Assuming: timeStep
phi: phi
Compressible: 0
Turbulent: 0
LES: 0
--> FOAM Warning : 
    From function simpleFunctionObject::simpleFunctionObject
    in file simpleFunctionObject/simpleFunctionObject.C at line 109
    'outputControlMode' not found in rack_massflow
Assuming: timeStep
phi: phi
Compressible: 0
Turbulent: 0
LES: 0
swak4Foam: Setting default mesh
[1] swak4Foam: Allocating new repository for sampledSurfaces
[2] swak4Foam: Allocating new repository for sampledSurfaces
[3] swak4Foam: Allocating new repository for sampledSurfaces
[4] swak4Foam: Allocating new repository for sampledSurfaces
[5] swak4Foam: Allocating new repository for sampledSurfaces
[6] swak4Foam: Allocating new repository for sampledSurfaces
[0] swak4Foam: Allocating new repository for sampledSurfaces
Writing surface acuSupply
Writing surface floorvent_0.8
Writing surface floorvent_0.9
Writing surface floorvent_0.7
Writing surface floorvent_0.75
Writing surface acureturn
Writing surface rackinlet
Writing surface rackoutlet
Time = 0.5

DILUPBiCG:  Solving for Ux, Initial residual = 1, Final residual = 0.0260374, No Iterations 1
DILUPBiCG:  Solving for Uy, Initial residual = 1, Final residual = 0.0309756, No Iterations 1
DILUPBiCG:  Solving for Uz, Initial residual = 1, Final residual = 0.0318617, No Iterations 1
[1] swak4Foam: Allocating new repository for sampledGlobalVariables
[2] swak4Foam: Allocating new repository for sampledGlobalVariables
[3] swak4Foam: Allocating new repository for sampledGlobalVariables
[4] swak4Foam: Allocating new repository for sampledGlobalVariables
[5] swak4Foam: Allocating new repository for sampledGlobalVariables
[0] swak4Foam: Allocating new repository for sampledGlobalVariables
[6] swak4Foam: Allocating new repository for sampledGlobalVariables
DILUPBiCG:  Solving for T, Initial residual = 1, Final residual = 0.0958427, No Iterations 1
DICPCG:  Solving for p_rgh, Initial residual = 1, Final residual = 0.00995225, No Iterations 114
time step continuity errors : sum local = 0.000143994, global = 2.2834e-06, cumulative = 2.2834e-06
DILUPBiCG:  Solving for epsilon, Initial residual = 0.0596782, Final residual = 0.0009706, No Iterations 2
DILUPBiCG:  Solving for k, Initial residual = 1, Final residual = 0.0286523, No Iterations 2
ExecutionTime = 0.67 s  ClockTime = 0 s

 MassFlows:   acu380F56D59CF2B3DF6EFF9D0E6E8D39CB_outlet = -0.972628  acu380F56D59CF2B3DF6EFF9D0E6E8D39CB_inlet = 1.04309
 MassFlows:   rack2796428BA49E0232CAC645AEBC8DA5C1_inlet = 0.17  rack2796428BA49E0232CAC645AEBC8DA5C1_outlet = -0.240245
Time = 1

DILUPBiCG:  Solving for Ux, Initial residual = 0.526682, Final residual = 0.0158243, No Iterations 1
DILUPBiCG:  Solving for Uy, Initial residual = 0.54878, Final residual = 0.0134465, No Iterations 1
DILUPBiCG:  Solving for Uz, Initial residual = 0.393645, Final residual = 0.0103583, No Iterations 1
DILUPBiCG:  Solving for T, Initial residual = 0.39078, Final residual = 0.0345659, No Iterations 1
DICPCG:  Solving for p_rgh, Initial residual = 0.250683, Final residual = 0.00235436, No Iterations 158
time step continuity errors : sum local = 0.00184635, global = 1.1256e-05, cumulative = 1.35394e-05
DILUPBiCG:  Solving for epsilon, Initial residual = 0.0419681, Final residual = 0.00105783, No Iterations 2
DILUPBiCG:  Solving for k, Initial residual = 0.395377, Final residual = 0.0106752, No Iterations 2
ExecutionTime = 0.93 s  ClockTime = 1 s

 MassFlows:   acu380F56D59CF2B3DF6EFF9D0E6E8D39CB_outlet = -0.955825  acu380F56D59CF2B3DF6EFF9D0E6E8D39CB_inlet = 1.05584
 MassFlows:   rack2796428BA49E0232CAC645AEBC8DA5C1_inlet = 0.17  rack2796428BA49E0232CAC645AEBC8DA5C1_outlet = -0.26894
Time = 1.5

DILUPBiCG:  Solving for Ux, Initial residual = 0.12083, Final residual = 0.00371811, No Iterations 1
DILUPBiCG:  Solving for Uy, Initial residual = 0.114391, Final residual = 0.00289939, No Iterations 1
DILUPBiCG:  Solving for Uz, Initial residual = 0.109584, Final residual = 0.00268145, No Iterations 1
DILUPBiCG:  Solving for T, Initial residual = 0.2242, Final residual = 0.018879, No Iterations 1
DICPCG:  Solving for p_rgh, Initial residual = 0.211434, Final residual = 0.00211348, No Iterations 163
time step continuity errors : sum local = 0.000915006, global = -2.42373e-06, cumulative = 1.11157e-05
DILUPBiCG:  Solving for epsilon, Initial residual = 0.0462055, Final residual = 0.00115072, No Iterations 2
DILUPBiCG:  Solving for k, Initial residual = 0.184796, Final residual = 0.00455805, No Iterations 2
ExecutionTime = 1.18 s  ClockTime = 1 s

 MassFlows:   acu380F56D59CF2B3DF6EFF9D0E6E8D39CB_outlet = -0.954673  acu380F56D59CF2B3DF6EFF9D0E6E8D39CB_inlet = 1.05563
 MassFlows:   rack2796428BA49E0232CAC645AEBC8DA5C1_inlet = 0.17  rack2796428BA49E0232CAC645AEBC8DA5C1_outlet = -0.271186
Time = 2

DILUPBiCG:  Solving for Ux, Initial residual = 0.179888, Final residual = 0.00609072, No Iterations 1
DILUPBiCG:  Solving for Uy, Initial residual = 0.229432, Final residual = 0.00529388, No Iterations 1
DILUPBiCG:  Solving for Uz, Initial residual = 0.082008, Final residual = 0.00198396, No Iterations 1
DILUPBiCG:  Solving for T, Initial residual = 0.154453, Final residual = 0.0132367, No Iterations 1
DICPCG:  Solving for p_rgh, Initial residual = 0.396073, Final residual = 0.00372139, No Iterations 164
time step continuity errors : sum local = 0.000612492, global = 2.79201e-06, cumulative = 1.39077e-05
DILUPBiCG:  Solving for epsilon, Initial residual = 0.0402628, Final residual = 0.000923857, No Iterations 2
DILUPBiCG:  Solving for k, Initial residual = 0.127173, Final residual = 0.00312004, No Iterations 2
ExecutionTime = 1.47 s  ClockTime = 1 s

 MassFlows:   acu380F56D59CF2B3DF6EFF9D0E6E8D39CB_outlet = -0.961249  acu380F56D59CF2B3DF6EFF9D0E6E8D39CB_inlet = 1.06316
 MassFlows:   rack2796428BA49E0232CAC645AEBC8DA5C1_inlet = 0.17  rack2796428BA49E0232CAC645AEBC8DA5C1_outlet = -0.271643
Time = 2.5

DILUPBiCG:  Solving for Ux, Initial residual = 0.127455, Final residual = 0.00458212, No Iterations 1
DILUPBiCG:  Solving for Uy, Initial residual = 0.130595, Final residual = 0.00300057, No Iterations 1
DILUPBiCG:  Solving for Uz, Initial residual = 0.0485269, Final residual = 0.00140074, No Iterations 1
DILUPBiCG:  Solving for T, Initial residual = 0.113019, Final residual = 0.0103614, No Iterations 1
DICPCG:  Solving for p_rgh, Initial residual = 0.442995, Final residual = 0.00424913, No Iterations 166
time step continuity errors : sum local = 0.000540599, global = 3.08811e-07, cumulative = 1.42165e-05
DILUPBiCG:  Solving for epsilon, Initial residual = 0.0334856, Final residual = 0.000545478, No Iterations 2
DILUPBiCG:  Solving for k, Initial residual = 0.100284, Final residual = 0.00220197, No Iterations 2
ExecutionTime = 1.73 s  ClockTime = 2 s

 MassFlows:   acu380F56D59CF2B3DF6EFF9D0E6E8D39CB_outlet = -0.970653  acu380F56D59CF2B3DF6EFF9D0E6E8D39CB_inlet = 1.07087
 MassFlows:   rack2796428BA49E0232CAC645AEBC8DA5C1_inlet = 0.17  rack2796428BA49E0232CAC645AEBC8DA5C1_outlet = -0.270186
Time = 3

DILUPBiCG:  Solving for Ux, Initial residual = 0.0370805, Final residual = 0.00146851, No Iterations 1
DILUPBiCG:  Solving for Uy, Initial residual = 0.0376045, Final residual = 0.000868237, No Iterations 1
DILUPBiCG:  Solving for Uz, Initial residual = 0.015308, Final residual = 0.000545591, No Iterations 1
DILUPBiCG:  Solving for T, Initial residual = 0.0855259, Final residual = 0.00846883, No Iterations 1
DICPCG:  Solving for p_rgh, Initial residual = 0.137813, Final residual = 0.00128922, No Iterations 153
time step continuity errors : sum local = 0.000203848, global = 8.08326e-08, cumulative = 1.42973e-05
DILUPBiCG:  Solving for epsilon, Initial residual = 0.0207337, Final residual = 0.00188588, No Iterations 2
DILUPBiCG:  Solving for k, Initial residual = 0.0810226, Final residual = 0.00164306, No Iterations 2
ExecutionTime = 2.01 s  ClockTime = 2 s

 MassFlows:   acu380F56D59CF2B3DF6EFF9D0E6E8D39CB_outlet = -0.97903  acu380F56D59CF2B3DF6EFF9D0E6E8D39CB_inlet = 1.07658
 MassFlows:   rack2796428BA49E0232CAC645AEBC8DA5C1_inlet = 0.17  rack2796428BA49E0232CAC645AEBC8DA5C1_outlet = -0.26754
Time = 3.5

DILUPBiCG:  Solving for Ux, Initial residual = 0.0464462, Final residual = 0.00183142, No Iterations 1
DILUPBiCG:  Solving for Uy, Initial residual = 0.0464562, Final residual = 0.0010779, No Iterations 1
DILUPBiCG:  Solving for Uz, Initial residual = 0.0192243, Final residual = 0.000524123, No Iterations 1
DILUPBiCG:  Solving for T, Initial residual = 0.0677171, Final residual = 0.000566335, No Iterations 2
DICPCG:  Solving for p_rgh, Initial residual = 0.0957333, Final residual = 0.00091614, No Iterations 167
time step continuity errors : sum local = 0.000156563, global = -1.90945e-07, cumulative = 1.41064e-05
DILUPBiCG:  Solving for epsilon, Initial residual = 0.0229673, Final residual = 0.000348481, No Iterations 2
DILUPBiCG:  Solving for k, Initial residual = 0.0674268, Final residual = 0.00189671, No Iterations 2
ExecutionTime = 2.27 s  ClockTime = 2 s

 MassFlows:   acu380F56D59CF2B3DF6EFF9D0E6E8D39CB_outlet = -0.98552  acu380F56D59CF2B3DF6EFF9D0E6E8D39CB_inlet = 1.07992
 MassFlows:   rack2796428BA49E0232CAC645AEBC8DA5C1_inlet = 0.17  rack2796428BA49E0232CAC645AEBC8DA5C1_outlet = -0.264417
Time = 4

DILUPBiCG:  Solving for Ux, Initial residual = 0.0189432, Final residual = 3.807e-05, No Iterations 2
DILUPBiCG:  Solving for Uy, Initial residual = 0.0127291, Final residual = 0.000336661, No Iterations 1
DILUPBiCG:  Solving for Uz, Initial residual = 0.00955967, Final residual = 3.30619e-05, No Iterations 2
DILUPBiCG:  Solving for T, Initial residual = 0.0540873, Final residual = 0.000387994, No Iterations 2
DICPCG:  Solving for p_rgh, Initial residual = 0.056521, Final residual = 0.000550084, No Iterations 165
time step continuity errors : sum local = 8.69548e-05, global = -1.58844e-07, cumulative = 1.39475e-05
DILUPBiCG:  Solving for epsilon, Initial residual = 0.0227153, Final residual = 7.83887e-05, No Iterations 3
DILUPBiCG:  Solving for k, Initial residual = 0.0578304, Final residual = 0.00177976, No Iterations 2
ExecutionTime = 2.58 s  ClockTime = 2 s

 MassFlows:   acu380F56D59CF2B3DF6EFF9D0E6E8D39CB_outlet = -0.990362  acu380F56D59CF2B3DF6EFF9D0E6E8D39CB_inlet = 1.08164
 MassFlows:   rack2796428BA49E0232CAC645AEBC8DA5C1_inlet = 0.17  rack2796428BA49E0232CAC645AEBC8DA5C1_outlet = -0.261298
Time = 4.5

DILUPBiCG:  Solving for Ux, Initial residual = 0.0174304, Final residual = 0.00087201, No Iterations 1
DILUPBiCG:  Solving for Uy, Initial residual = 0.0128837, Final residual = 0.000312759, No Iterations 1
DILUPBiCG:  Solving for Uz, Initial residual = 0.00722158, Final residual = 0.000327881, No Iterations 1
DILUPBiCG:  Solving for T, Initial residual = 0.0448419, Final residual = 0.000307471, No Iterations 2
DICPCG:  Solving for p_rgh, Initial residual = 0.0378337, Final residual = 0.000375978, No Iterations 131
time step continuity errors : sum local = 5.59131e-05, global = -1.11275e-05, cumulative = 2.81998e-06
DILUPBiCG:  Solving for epsilon, Initial residual = 0.0216483, Final residual = 8.06169e-05, No Iterations 3
DILUPBiCG:  Solving for k, Initial residual = 0.0505435, Final residual = 0.00162768, No Iterations 2
ExecutionTime = 2.81 s  ClockTime = 3 s

 MassFlows:   acu380F56D59CF2B3DF6EFF9D0E6E8D39CB_outlet = -0.99384  acu380F56D59CF2B3DF6EFF9D0E6E8D39CB_inlet = 1.08122
 MassFlows:   rack2796428BA49E0232CAC645AEBC8DA5C1_inlet = 0.17  rack2796428BA49E0232CAC645AEBC8DA5C1_outlet = -0.258447
Time = 5

DILUPBiCG:  Solving for Ux, Initial residual = 0.0148545, Final residual = 1.88075e-05, No Iterations 2
DILUPBiCG:  Solving for Uy, Initial residual = 0.00838897, Final residual = 0.000253918, No Iterations 1
DILUPBiCG:  Solving for Uz, Initial residual = 0.00568906, Final residual = 0.000182701, No Iterations 1
DILUPBiCG:  Solving for T, Initial residual = 0.0382667, Final residual = 0.000258717, No Iterations 2
DICPCG:  Solving for p_rgh, Initial residual = 0.0296342, Final residual = 0.000266711, No Iterations 161
time step continuity errors : sum local = 3.93369e-05, global = 1.9815e-07, cumulative = 3.01813e-06
DILUPBiCG:  Solving for epsilon, Initial residual = 0.0208404, Final residual = 7.9827e-05, No Iterations 3
DILUPBiCG:  Solving for k, Initial residual = 0.0459477, Final residual = 0.00168158, No Iterations 2
ExecutionTime = 3.11 s  ClockTime = 3 s

 MassFlows:   acu380F56D59CF2B3DF6EFF9D0E6E8D39CB_outlet = -0.996182  acu380F56D59CF2B3DF6EFF9D0E6E8D39CB_inlet = 1.08202
 MassFlows:   rack2796428BA49E0232CAC645AEBC8DA5C1_inlet = 0.17  rack2796428BA49E0232CAC645AEBC8DA5C1_outlet = -0.255816
Time = 5.5

DILUPBiCG:  Solving for Ux, Initial residual = 0.0134833, Final residual = 0.00102881, No Iterations 1
DILUPBiCG:  Solving for Uy, Initial residual = 0.00771182, Final residual = 0.000372346, No Iterations 1
DILUPBiCG:  Solving for Uz, Initial residual = 0.00487984, Final residual = 0.000144987, No Iterations 1
DILUPBiCG:  Solving for T, Initial residual = 0.0333372, Final residual = 0.000225621, No Iterations 2
DICPCG:  Solving for p_rgh, Initial residual = 0.0208929, Final residual = 0.000207328, No Iterations 147
time step continuity errors : sum local = 3.08681e-05, global = 2.38931e-07, cumulative = 3.25706e-06
DILUPBiCG:  Solving for epsilon, Initial residual = 0.020175, Final residual = 0.001821, No Iterations 2
DILUPBiCG:  Solving for k, Initial residual = 0.0429416, Final residual = 0.00182918, No Iterations 2
ExecutionTime = 3.37 s  ClockTime = 3 s

 MassFlows:   acu380F56D59CF2B3DF6EFF9D0E6E8D39CB_outlet = -0.997662  acu380F56D59CF2B3DF6EFF9D0E6E8D39CB_inlet = 1.08094
 MassFlows:   rack2796428BA49E0232CAC645AEBC8DA5C1_inlet = 0.17  rack2796428BA49E0232CAC645AEBC8DA5C1_outlet = -0.253255
Time = 6

DILUPBiCG:  Solving for Ux, Initial residual = 0.013248, Final residual = 0.000920608, No Iterations 1
DILUPBiCG:  Solving for Uy, Initial residual = 0.00753381, Final residual = 0.00036585, No Iterations 1
DILUPBiCG:  Solving for Uz, Initial residual = 0.0045988, Final residual = 0.000132894, No Iterations 1
DILUPBiCG:  Solving for T, Initial residual = 0.0295045, Final residual = 0.00255857, No Iterations 1
DICPCG:  Solving for p_rgh, Initial residual = 0.0172141, Final residual = 0.000159418, No Iterations 154
time step continuity errors : sum local = 2.37155e-05, global = -2.34424e-07, cumulative = 3.02263e-06
DILUPBiCG:  Solving for epsilon, Initial residual = 0.0192697, Final residual = 0.000760242, No Iterations 2
DILUPBiCG:  Solving for k, Initial residual = 0.0411621, Final residual = 0.00200779, No Iterations 2
ExecutionTime = 3.66 s  ClockTime = 3 s

 MassFlows:   acu380F56D59CF2B3DF6EFF9D0E6E8D39CB_outlet = -0.998669  acu380F56D59CF2B3DF6EFF9D0E6E8D39CB_inlet = 1.0786
 MassFlows:   rack2796428BA49E0232CAC645AEBC8DA5C1_inlet = 0.17  rack2796428BA49E0232CAC645AEBC8DA5C1_outlet = -0.249952
Time = 6.5

DILUPBiCG:  Solving for Ux, Initial residual = 0.0128061, Final residual = 0.000993098, No Iterations 1
DILUPBiCG:  Solving for Uy, Initial residual = 0.00674059, Final residual = 0.00025932, No Iterations 1
DILUPBiCG:  Solving for Uz, Initial residual = 0.00429174, Final residual = 0.000121008, No Iterations 1
DILUPBiCG:  Solving for T, Initial residual = 0.0263407, Final residual = 0.00180338, No Iterations 1
DICPCG:  Solving for p_rgh, Initial residual = 0.0143891, Final residual = 0.000142484, No Iterations 150
time step continuity errors : sum local = 2.10408e-05, global = -4.70031e-09, cumulative = 3.01793e-06
DILUPBiCG:  Solving for epsilon, Initial residual = 0.0192777, Final residual = 0.000650188, No Iterations 2
DILUPBiCG:  Solving for k, Initial residual = 0.0400122, Final residual = 0.002109, No Iterations 2
ExecutionTime = 3.92 s  ClockTime = 4 s

 MassFlows:   acu380F56D59CF2B3DF6EFF9D0E6E8D39CB_outlet = -0.999163  acu380F56D59CF2B3DF6EFF9D0E6E8D39CB_inlet = 1.07674
 MassFlows:   rack2796428BA49E0232CAC645AEBC8DA5C1_inlet = 0.17  rack2796428BA49E0232CAC645AEBC8DA5C1_outlet = -0.247576
Time = 7

DILUPBiCG:  Solving for Ux, Initial residual = 0.0127381, Final residual = 0.000988717, No Iterations 1
DILUPBiCG:  Solving for Uy, Initial residual = 0.00656327, Final residual = 0.000174003, No Iterations 1
DILUPBiCG:  Solving for Uz, Initial residual = 0.00408076, Final residual = 0.000111614, No Iterations 1
DILUPBiCG:  Solving for T, Initial residual = 0.0240282, Final residual = 0.00179894, No Iterations 1
DICPCG:  Solving for p_rgh, Initial residual = 0.0132697, Final residual = 0.000132554, No Iterations 147
time step continuity errors : sum local = 1.94632e-05, global = -3.99005e-08, cumulative = 2.97803e-06
DILUPBiCG:  Solving for epsilon, Initial residual = 0.0195271, Final residual = 0.000618555, No Iterations 2
DILUPBiCG:  Solving for k, Initial residual = 0.039095, Final residual = 0.00212759, No Iterations 2
ExecutionTime = 4.18 s  ClockTime = 4 s

 MassFlows:   acu380F56D59CF2B3DF6EFF9D0E6E8D39CB_outlet = -0.999442  acu380F56D59CF2B3DF6EFF9D0E6E8D39CB_inlet = 1.0747
 MassFlows:   rack2796428BA49E0232CAC645AEBC8DA5C1_inlet = 0.17  rack2796428BA49E0232CAC645AEBC8DA5C1_outlet = -0.24526
Time = 7.5

DILUPBiCG:  Solving for Ux, Initial residual = 0.012576, Final residual = 0.0007814, No Iterations 1
DILUPBiCG:  Solving for Uy, Initial residual = 0.00644099, Final residual = 0.00016664, No Iterations 1
DILUPBiCG:  Solving for Uz, Initial residual = 0.00395074, Final residual = 0.000105603, No Iterations 1
DILUPBiCG:  Solving for T, Initial residual = 0.0221183, Final residual = 0.00175233, No Iterations 1
DICPCG:  Solving for p_rgh, Initial residual = 0.0125411, Final residual = 0.000113553, No Iterations 147
time step continuity errors : sum local = 1.66481e-05, global = -5.58545e-08, cumulative = 2.92218e-06
DILUPBiCG:  Solving for epsilon, Initial residual = 0.0199268, Final residual = 0.000607814, No Iterations 2
DILUPBiCG:  Solving for k, Initial residual = 0.038302, Final residual = 0.00209294, No Iterations 2
ExecutionTime = 4.48 s  ClockTime = 4 s

 MassFlows:   acu380F56D59CF2B3DF6EFF9D0E6E8D39CB_outlet = -0.99961  acu380F56D59CF2B3DF6EFF9D0E6E8D39CB_inlet = 1.07259
 MassFlows:   rack2796428BA49E0232CAC645AEBC8DA5C1_inlet = 0.17  rack2796428BA49E0232CAC645AEBC8DA5C1_outlet = -0.242984
Time = 8

DILUPBiCG:  Solving for Ux, Initial residual = 0.0123605, Final residual = 0.000629481, No Iterations 1
DILUPBiCG:  Solving for Uy, Initial residual = 0.00632405, Final residual = 0.000165635, No Iterations 1
DILUPBiCG:  Solving for Uz, Initial residual = 0.00388713, Final residual = 0.000102172, No Iterations 1
DILUPBiCG:  Solving for T, Initial residual = 0.020516, Final residual = 0.00168478, No Iterations 1
DICPCG:  Solving for p_rgh, Initial residual = 0.0119422, Final residual = 0.000117566, No Iterations 142
time step continuity errors : sum local = 1.72563e-05, global = 1.38973e-07, cumulative = 3.06115e-06
DILUPBiCG:  Solving for epsilon, Initial residual = 0.0202959, Final residual = 0.000598364, No Iterations 2
DILUPBiCG:  Solving for k, Initial residual = 0.0375177, Final residual = 0.00202313, No Iterations 2
ExecutionTime = 4.72 s  ClockTime = 5 s

 MassFlows:   acu380F56D59CF2B3DF6EFF9D0E6E8D39CB_outlet = -0.999717  acu380F56D59CF2B3DF6EFF9D0E6E8D39CB_inlet = 1.07047
 MassFlows:   rack2796428BA49E0232CAC645AEBC8DA5C1_inlet = 0.17  rack2796428BA49E0232CAC645AEBC8DA5C1_outlet = -0.24074
Time = 8.5

DILUPBiCG:  Solving for Ux, Initial residual = 0.0122056, Final residual = 0.000549509, No Iterations 1
DILUPBiCG:  Solving for Uy, Initial residual = 0.0061726, Final residual = 0.000162308, No Iterations 1
DILUPBiCG:  Solving for Uz, Initial residual = 0.00384637, Final residual = 9.96898e-05, No Iterations 1
DILUPBiCG:  Solving for T, Initial residual = 0.0191387, Final residual = 0.00161152, No Iterations 1
DICPCG:  Solving for p_rgh, Initial residual = 0.0113604, Final residual = 0.000107693, No Iterations 147
time step continuity errors : sum local = 1.58386e-05, global = 9.43332e-08, cumulative = 3.15548e-06
DILUPBiCG:  Solving for epsilon, Initial residual = 0.0205496, Final residual = 0.000587327, No Iterations 2
DILUPBiCG:  Solving for k, Initial residual = 0.0367184, Final residual = 0.00192666, No Iterations 2
ExecutionTime = 5 s  ClockTime = 5 s

 MassFlows:   acu380F56D59CF2B3DF6EFF9D0E6E8D39CB_outlet = -0.999788  acu380F56D59CF2B3DF6EFF9D0E6E8D39CB_inlet = 1.06834
 MassFlows:   rack2796428BA49E0232CAC645AEBC8DA5C1_inlet = 0.17  rack2796428BA49E0232CAC645AEBC8DA5C1_outlet = -0.238539
Time = 9

DILUPBiCG:  Solving for Ux, Initial residual = 0.0121134, Final residual = 0.000507003, No Iterations 1
DILUPBiCG:  Solving for Uy, Initial residual = 0.00604303, Final residual = 0.000158011, No Iterations 1
DILUPBiCG:  Solving for Uz, Initial residual = 0.00380208, Final residual = 9.72453e-05, No Iterations 1
DILUPBiCG:  Solving for T, Initial residual = 0.0179359, Final residual = 0.00154213, No Iterations 1
DICPCG:  Solving for p_rgh, Initial residual = 0.0108314, Final residual = 0.000106112, No Iterations 138
time step continuity errors : sum local = 1.5645e-05, global = 1.75844e-07, cumulative = 3.33133e-06
DILUPBiCG:  Solving for epsilon, Initial residual = 0.0206217, Final residual = 0.000573455, No Iterations 2
DILUPBiCG:  Solving for k, Initial residual = 0.0358345, Final residual = 0.00180929, No Iterations 2
ExecutionTime = 5.24 s  ClockTime = 5 s

 MassFlows:   acu380F56D59CF2B3DF6EFF9D0E6E8D39CB_outlet = -0.999837  acu380F56D59CF2B3DF6EFF9D0E6E8D39CB_inlet = 1.06624
 MassFlows:   rack2796428BA49E0232CAC645AEBC8DA5C1_inlet = 0.17  rack2796428BA49E0232CAC645AEBC8DA5C1_outlet = -0.236388
Time = 9.5

DILUPBiCG:  Solving for Ux, Initial residual = 0.0120329, Final residual = 0.00048345, No Iterations 1
DILUPBiCG:  Solving for Uy, Initial residual = 0.00594568, Final residual = 0.000153914, No Iterations 1
DILUPBiCG:  Solving for Uz, Initial residual = 0.00375365, Final residual = 9.46507e-05, No Iterations 1
DILUPBiCG:  Solving for T, Initial residual = 0.0168743, Final residual = 0.00147882, No Iterations 1
DICPCG:  Solving for p_rgh, Initial residual = 0.0102589, Final residual = 9.72542e-05, No Iterations 80
time step continuity errors : sum local = 1.43823e-05, global = 4.01149e-07, cumulative = 3.73248e-06
DILUPBiCG:  Solving for epsilon, Initial residual = 0.0204407, Final residual = 0.000553924, No Iterations 2
DILUPBiCG:  Solving for k, Initial residual = 0.034857, Final residual = 0.00167662, No Iterations 2
ExecutionTime = 5.47 s  ClockTime = 5 s

 MassFlows:   acu380F56D59CF2B3DF6EFF9D0E6E8D39CB_outlet = -0.999872  acu380F56D59CF2B3DF6EFF9D0E6E8D39CB_inlet = 1.0642
 MassFlows:   rack2796428BA49E0232CAC645AEBC8DA5C1_inlet = 0.17  rack2796428BA49E0232CAC645AEBC8DA5C1_outlet = -0.234292
Time = 10

DILUPBiCG:  Solving for Ux, Initial residual = 0.0119381, Final residual = 0.000473161, No Iterations 1
DILUPBiCG:  Solving for Uy, Initial residual = 0.00587453, Final residual = 0.000150729, No Iterations 1
DILUPBiCG:  Solving for Uz, Initial residual = 0.00368843, Final residual = 9.19769e-05, No Iterations 1
DILUPBiCG:  Solving for T, Initial residual = 0.0159354, Final residual = 0.0014236, No Iterations 1
DICPCG:  Solving for p_rgh, Initial residual = 0.00971276, Final residual = 8.67061e-05, No Iterations 137
time step continuity errors : sum local = 1.28755e-05, global = 5.98443e-08, cumulative = 3.79232e-06
DILUPBiCG:  Solving for epsilon, Initial residual = 0.0200661, Final residual = 0.000529225, No Iterations 2
DILUPBiCG:  Solving for k, Initial residual = 0.0338265, Final residual = 0.00153409, No Iterations 2
ExecutionTime = 5.7 s  ClockTime = 6 s

 MassFlows:   acu380F56D59CF2B3DF6EFF9D0E6E8D39CB_outlet = -0.999898  acu380F56D59CF2B3DF6EFF9D0E6E8D39CB_inlet = 1.06216
 MassFlows:   rack2796428BA49E0232CAC645AEBC8DA5C1_inlet = 0.17  rack2796428BA49E0232CAC645AEBC8DA5C1_outlet = -0.232253
Time = 10.5

DILUPBiCG:  Solving for Ux, Initial residual = 0.0118477, Final residual = 0.000471804, No Iterations 1
DILUPBiCG:  Solving for Uy, Initial residual = 0.00578965, Final residual = 0.0001475, No Iterations 1
DILUPBiCG:  Solving for Uz, Initial residual = 0.00364711, Final residual = 8.96502e-05, No Iterations 1
DILUPBiCG:  Solving for T, Initial residual = 0.0150925, Final residual = 0.00137276, No Iterations 1
DICPCG:  Solving for p_rgh, Initial residual = 0.00935014, Final residual = 8.8457e-05, No Iterations 78
time step continuity errors : sum local = 1.31749e-05, global = 3.527e-07, cumulative = 4.14502e-06
DILUPBiCG:  Solving for epsilon, Initial residual = 0.0195071, Final residual = 0.000500258, No Iterations 2
DILUPBiCG:  Solving for k, Initial residual = 0.0327891, Final residual = 0.00139243, No Iterations 2
ExecutionTime = 5.91 s  ClockTime = 6 s

 MassFlows:   acu380F56D59CF2B3DF6EFF9D0E6E8D39CB_outlet = -0.999918  acu380F56D59CF2B3DF6EFF9D0E6E8D39CB_inlet = 1.06022
 MassFlows:   rack2796428BA49E0232CAC645AEBC8DA5C1_inlet = 0.17  rack2796428BA49E0232CAC645AEBC8DA5C1_outlet = -0.230271
Time = 11

DILUPBiCG:  Solving for Ux, Initial residual = 0.0117264, Final residual = 0.000474231, No Iterations 1
DILUPBiCG:  Solving for Uy, Initial residual = 0.00572295, Final residual = 0.000145262, No Iterations 1
DILUPBiCG:  Solving for Uz, Initial residual = 0.00359041, Final residual = 8.75061e-05, No Iterations 1
DILUPBiCG:  Solving for T, Initial residual = 0.0143299, Final residual = 0.00132883, No Iterations 1
DICPCG:  Solving for p_rgh, Initial residual = 0.00905011, Final residual = 8.85063e-05, No Iterations 82
time step continuity errors : sum local = 1.32421e-05, global = 1.98396e-07, cumulative = 4.34342e-06
DILUPBiCG:  Solving for epsilon, Initial residual = 0.0188105, Final residual = 0.000468316, No Iterations 2
DILUPBiCG:  Solving for k, Initial residual = 0.0317178, Final residual = 0.00125943, No Iterations 2
ExecutionTime = 6.14 s  ClockTime = 6 s

 MassFlows:   acu380F56D59CF2B3DF6EFF9D0E6E8D39CB_outlet = -0.999934  acu380F56D59CF2B3DF6EFF9D0E6E8D39CB_inlet = 1.0583
 MassFlows:   rack2796428BA49E0232CAC645AEBC8DA5C1_inlet = 0.17  rack2796428BA49E0232CAC645AEBC8DA5C1_outlet = -0.228343
Time = 11.5

DILUPBiCG:  Solving for Ux, Initial residual = 0.0116539, Final residual = 0.000475259, No Iterations 1
DILUPBiCG:  Solving for Uy, Initial residual = 0.00564726, Final residual = 0.000143203, No Iterations 1
DILUPBiCG:  Solving for Uz, Initial residual = 0.00354374, Final residual = 8.5608e-05, No Iterations 1
DILUPBiCG:  Solving for T, Initial residual = 0.0136378, Final residual = 0.0012884, No Iterations 1
DICPCG:  Solving for p_rgh, Initial residual = 0.00885716, Final residual = 7.10652e-05, No Iterations 137
time step continuity errors : sum local = 1.06823e-05, global = 6.47051e-09, cumulative = 4.34989e-06
DILUPBiCG:  Solving for epsilon, Initial residual = 0.0180209, Final residual = 0.000435479, No Iterations 2
DILUPBiCG:  Solving for k, Initial residual = 0.0306528, Final residual = 0.00114201, No Iterations 2
ExecutionTime = 6.37 s  ClockTime = 6 s

 MassFlows:   acu380F56D59CF2B3DF6EFF9D0E6E8D39CB_outlet = -0.999946  acu380F56D59CF2B3DF6EFF9D0E6E8D39CB_inlet = 1.05641
 MassFlows:   rack2796428BA49E0232CAC645AEBC8DA5C1_inlet = 0.17  rack2796428BA49E0232CAC645AEBC8DA5C1_outlet = -0.226467
Time = 12

DILUPBiCG:  Solving for Ux, Initial residual = 0.011613, Final residual = 0.000472718, No Iterations 1
DILUPBiCG:  Solving for Uy, Initial residual = 0.00556906, Final residual = 0.000141626, No Iterations 1
DILUPBiCG:  Solving for Uz, Initial residual = 0.0035103, Final residual = 8.40238e-05, No Iterations 1
DILUPBiCG:  Solving for T, Initial residual = 0.0130081, Final residual = 0.00124515, No Iterations 1
DICPCG:  Solving for p_rgh, Initial residual = 0.00871506, Final residual = 8.19731e-05, No Iterations 76
time step continuity errors : sum local = 1.23694e-05, global = 1.25711e-07, cumulative = 4.4756e-06
DILUPBiCG:  Solving for epsilon, Initial residual = 0.0171575, Final residual = 0.000402173, No Iterations 2
DILUPBiCG:  Solving for k, Initial residual = 0.0295816, Final residual = 0.0010446, No Iterations 2
ExecutionTime = 6.57 s  ClockTime = 6 s

 MassFlows:   acu380F56D59CF2B3DF6EFF9D0E6E8D39CB_outlet = -0.999955  acu380F56D59CF2B3DF6EFF9D0E6E8D39CB_inlet = 1.05461
 MassFlows:   rack2796428BA49E0232CAC645AEBC8DA5C1_inlet = 0.17  rack2796428BA49E0232CAC645AEBC8DA5C1_outlet = -0.224639
Time = 12.5

DILUPBiCG:  Solving for Ux, Initial residual = 0.011561, Final residual = 0.000471441, No Iterations 1
DILUPBiCG:  Solving for Uy, Initial residual = 0.00552634, Final residual = 0.000140889, No Iterations 1
DILUPBiCG:  Solving for Uz, Initial residual = 0.00346826, Final residual = 8.24341e-05, No Iterations 1
DILUPBiCG:  Solving for T, Initial residual = 0.0124381, Final residual = 0.00120514, No Iterations 1
DICPCG:  Solving for p_rgh, Initial residual = 0.00853354, Final residual = 8.10917e-05, No Iterations 75
time step continuity errors : sum local = 1.22978e-05, global = 4.38858e-08, cumulative = 4.51948e-06
DILUPBiCG:  Solving for epsilon, Initial residual = 0.0162432, Final residual = 0.000369532, No Iterations 2
DILUPBiCG:  Solving for k, Initial residual = 0.0285236, Final residual = 0.00096686, No Iterations 2
ExecutionTime = 6.8 s  ClockTime = 7 s

 MassFlows:   acu380F56D59CF2B3DF6EFF9D0E6E8D39CB_outlet = -0.999963  acu380F56D59CF2B3DF6EFF9D0E6E8D39CB_inlet = 1.05282
 MassFlows:   rack2796428BA49E0232CAC645AEBC8DA5C1_inlet = 0.17  rack2796428BA49E0232CAC645AEBC8DA5C1_outlet = -0.222856
Time = 13

DILUPBiCG:  Solving for Ux, Initial residual = 0.0115121, Final residual = 0.000471662, No Iterations 1
DILUPBiCG:  Solving for Uy, Initial residual = 0.00548246, Final residual = 0.000140635, No Iterations 1
DILUPBiCG:  Solving for Uz, Initial residual = 0.00343235, Final residual = 8.10558e-05, No Iterations 1
DILUPBiCG:  Solving for T, Initial residual = 0.0119182, Final residual = 0.00116628, No Iterations 1
DICPCG:  Solving for p_rgh, Initial residual = 0.00831378, Final residual = 7.65344e-05, No Iterations 75
time step continuity errors : sum local = 1.16651e-05, global = 1.02426e-07, cumulative = 4.62191e-06
DILUPBiCG:  Solving for epsilon, Initial residual = 0.0152856, Final residual = 0.000339313, No Iterations 2
DILUPBiCG:  Solving for k, Initial residual = 0.0274967, Final residual = 0.000902932, No Iterations 2
ExecutionTime = 7 s  ClockTime = 7 s

 MassFlows:   acu380F56D59CF2B3DF6EFF9D0E6E8D39CB_outlet = -0.999969  acu380F56D59CF2B3DF6EFF9D0E6E8D39CB_inlet = 1.05109
 MassFlows:   rack2796428BA49E0232CAC645AEBC8DA5C1_inlet = 0.17  rack2796428BA49E0232CAC645AEBC8DA5C1_outlet = -0.221115
Time = 13.5

DILUPBiCG:  Solving for Ux, Initial residual = 0.0114464, Final residual = 0.000474823, No Iterations 1
DILUPBiCG:  Solving for Uy, Initial residual = 0.00543805, Final residual = 0.000140944, No Iterations 1
DILUPBiCG:  Solving for Uz, Initial residual = 0.00339784, Final residual = 7.9905e-05, No Iterations 1
DILUPBiCG:  Solving for T, Initial residual = 0.0114452, Final residual = 0.00112886, No Iterations 1
DICPCG:  Solving for p_rgh, Initial residual = 0.00809525, Final residual = 7.9743e-05, No Iterations 75
time step continuity errors : sum local = 1.22146e-05, global = 1.68623e-07, cumulative = 4.79053e-06
DILUPBiCG:  Solving for epsilon, Initial residual = 0.0143137, Final residual = 0.000311681, No Iterations 2
DILUPBiCG:  Solving for k, Initial residual = 0.0265285, Final residual = 0.000851467, No Iterations 2
ExecutionTime = 7.23 s  ClockTime = 7 s

 MassFlows:   acu380F56D59CF2B3DF6EFF9D0E6E8D39CB_outlet = -0.999974  acu380F56D59CF2B3DF6EFF9D0E6E8D39CB_inlet = 1.04941
 MassFlows:   rack2796428BA49E0232CAC645AEBC8DA5C1_inlet = 0.17  rack2796428BA49E0232CAC645AEBC8DA5C1_outlet = -0.219416
Time = 14

DILUPBiCG:  Solving for Ux, Initial residual = 0.0113753, Final residual = 0.000482435, No Iterations 1
DILUPBiCG:  Solving for Uy, Initial residual = 0.00539282, Final residual = 0.000141754, No Iterations 1
DILUPBiCG:  Solving for Uz, Initial residual = 0.00336489, Final residual = 7.88208e-05, No Iterations 1
DILUPBiCG:  Solving for T, Initial residual = 0.011014, Final residual = 0.00109274, No Iterations 1
DICPCG:  Solving for p_rgh, Initial residual = 0.00788711, Final residual = 7.74254e-05, No Iterations 76
time step continuity errors : sum local = 1.19185e-05, global = 2.08861e-07, cumulative = 4.99939e-06
DILUPBiCG:  Solving for epsilon, Initial residual = 0.0133718, Final residual = 0.00028916, No Iterations 2
DILUPBiCG:  Solving for k, Initial residual = 0.0256442, Final residual = 0.000808129, No Iterations 2
ExecutionTime = 7.44 s  ClockTime = 7 s

 MassFlows:   acu380F56D59CF2B3DF6EFF9D0E6E8D39CB_outlet = -0.999979  acu380F56D59CF2B3DF6EFF9D0E6E8D39CB_inlet = 1.04775
 MassFlows:   rack2796428BA49E0232CAC645AEBC8DA5C1_inlet = 0.17  rack2796428BA49E0232CAC645AEBC8DA5C1_outlet = -0.217755
Time = 14.5

DILUPBiCG:  Solving for Ux, Initial residual = 0.01135, Final residual = 0.000493872, No Iterations 1
DILUPBiCG:  Solving for Uy, Initial residual = 0.00535034, Final residual = 0.000142891, No Iterations 1
DILUPBiCG:  Solving for Uz, Initial residual = 0.00333584, Final residual = 7.78619e-05, No Iterations 1
DILUPBiCG:  Solving for T, Initial residual = 0.0106154, Final residual = 0.00105827, No Iterations 1
DICPCG:  Solving for p_rgh, Initial residual = 0.00772507, Final residual = 7.56513e-05, No Iterations 77
time step continuity errors : sum local = 1.17042e-05, global = 2.18533e-07, cumulative = 5.21793e-06
DILUPBiCG:  Solving for epsilon, Initial residual = 0.0124707, Final residual = 0.000273265, No Iterations 2
DILUPBiCG:  Solving for k, Initial residual = 0.0248034, Final residual = 0.000767145, No Iterations 2
ExecutionTime = 7.63 s  ClockTime = 8 s

 MassFlows:   acu380F56D59CF2B3DF6EFF9D0E6E8D39CB_outlet = -0.999982  acu380F56D59CF2B3DF6EFF9D0E6E8D39CB_inlet = 1.04614
 MassFlows:   rack2796428BA49E0232CAC645AEBC8DA5C1_inlet = 0.17  rack2796428BA49E0232CAC645AEBC8DA5C1_outlet = -0.216133
Time = 15

DILUPBiCG:  Solving for Ux, Initial residual = 0.0113459, Final residual = 0.000506905, No Iterations 1
DILUPBiCG:  Solving for Uy, Initial residual = 0.00531259, Final residual = 0.000144368, No Iterations 1
DILUPBiCG:  Solving for Uz, Initial residual = 0.00331053, Final residual = 7.69694e-05, No Iterations 1
DILUPBiCG:  Solving for T, Initial residual = 0.0102473, Final residual = 0.00102375, No Iterations 1
DICPCG:  Solving for p_rgh, Initial residual = 0.00757448, Final residual = 7.26517e-05, No Iterations 78
time step continuity errors : sum local = 1.12969e-05, global = 1.84987e-07, cumulative = 5.40291e-06
DILUPBiCG:  Solving for epsilon, Initial residual = 0.0116322, Final residual = 0.000270602, No Iterations 2
DILUPBiCG:  Solving for k, Initial residual = 0.0240055, Final residual = 0.000729399, No Iterations 2
ExecutionTime = 7.87 s  ClockTime = 8 s

 MassFlows:   acu380F56D59CF2B3DF6EFF9D0E6E8D39CB_outlet = -0.999985  acu380F56D59CF2B3DF6EFF9D0E6E8D39CB_inlet = 1.04455
 MassFlows:   rack2796428BA49E0232CAC645AEBC8DA5C1_inlet = 0.17  rack2796428BA49E0232CAC645AEBC8DA5C1_outlet = -0.214546
Time = 15.5

DILUPBiCG:  Solving for Ux, Initial residual = 0.0113462, Final residual = 0.000518744, No Iterations 1
DILUPBiCG:  Solving for Uy, Initial residual = 0.00529668, Final residual = 0.000146084, No Iterations 1
DILUPBiCG:  Solving for Uz, Initial residual = 0.00328994, Final residual = 7.621e-05, No Iterations 1
DILUPBiCG:  Solving for T, Initial residual = 0.00990843, Final residual = 0.000990271, No Iterations 1
DICPCG:  Solving for p_rgh, Initial residual = 0.00742922, Final residual = 7.07634e-05, No Iterations 79
time step continuity errors : sum local = 1.10582e-05, global = 1.18249e-07, cumulative = 5.52116e-06
DILUPBiCG:  Solving for epsilon, Initial residual = 0.010877, Final residual = 0.00028986, No Iterations 2
DILUPBiCG:  Solving for k, Initial residual = 0.0232256, Final residual = 0.000693436, No Iterations 2
ExecutionTime = 8.07 s  ClockTime = 8 s

 MassFlows:   acu380F56D59CF2B3DF6EFF9D0E6E8D39CB_outlet = -0.999987  acu380F56D59CF2B3DF6EFF9D0E6E8D39CB_inlet = 1.04299
 MassFlows:   rack2796428BA49E0232CAC645AEBC8DA5C1_inlet = 0.17  rack2796428BA49E0232CAC645AEBC8DA5C1_outlet = -0.212996
Time = 16

DILUPBiCG:  Solving for Ux, Initial residual = 0.0113237, Final residual = 0.000528467, No Iterations 1
DILUPBiCG:  Solving for Uy, Initial residual = 0.00529223, Final residual = 0.000147953, No Iterations 1
DILUPBiCG:  Solving for Uz, Initial residual = 0.00327258, Final residual = 7.55834e-05, No Iterations 1
DILUPBiCG:  Solving for T, Initial residual = 0.00959721, Final residual = 0.000955499, No Iterations 1
DICPCG:  Solving for p_rgh, Initial residual = 0.00729826, Final residual = 6.7607e-05, No Iterations 80
time step continuity errors : sum local = 1.06166e-05, global = 3.26319e-08, cumulative = 5.55379e-06
DILUPBiCG:  Solving for epsilon, Initial residual = 0.0101889, Final residual = 0.000371141, No Iterations 2
DILUPBiCG:  Solving for k, Initial residual = 0.0224343, Final residual = 0.000657951, No Iterations 2
ExecutionTime = 8.27 s  ClockTime = 8 s

 MassFlows:   acu380F56D59CF2B3DF6EFF9D0E6E8D39CB_outlet = -0.999989  acu380F56D59CF2B3DF6EFF9D0E6E8D39CB_inlet = 1.04147
 MassFlows:   rack2796428BA49E0232CAC645AEBC8DA5C1_inlet = 0.17  rack2796428BA49E0232CAC645AEBC8DA5C1_outlet = -0.211478
Time = 16.5

DILUPBiCG:  Solving for Ux, Initial residual = 0.0112744, Final residual = 0.00053935, No Iterations 1
DILUPBiCG:  Solving for Uy, Initial residual = 0.0052857, Final residual = 0.000150231, No Iterations 1
DILUPBiCG:  Solving for Uz, Initial residual = 0.00325636, Final residual = 7.50843e-05, No Iterations 1
DILUPBiCG:  Solving for T, Initial residual = 0.00930901, Final residual = 0.000920561, No Iterations 1
DICPCG:  Solving for p_rgh, Initial residual = 0.00714718, Final residual = 6.96184e-05, No Iterations 81
time step continuity errors : sum local = 1.09833e-05, global = -8.86174e-08, cumulative = 5.46518e-06
DILUPBiCG:  Solving for epsilon, Initial residual = 0.00954136, Final residual = 0.000944527, No Iterations 2
DILUPBiCG:  Solving for k, Initial residual = 0.0215556, Final residual = 0.00062175, No Iterations 2
ExecutionTime = 8.51 s  ClockTime = 8 s

 MassFlows:   acu380F56D59CF2B3DF6EFF9D0E6E8D39CB_outlet = -0.999991  acu380F56D59CF2B3DF6EFF9D0E6E8D39CB_inlet = 1.03998
 MassFlows:   rack2796428BA49E0232CAC645AEBC8DA5C1_inlet = 0.17  rack2796428BA49E0232CAC645AEBC8DA5C1_outlet = -0.209995
Time = 17

DILUPBiCG:  Solving for Ux, Initial residual = 0.0112484, Final residual = 0.000550725, No Iterations 1
DILUPBiCG:  Solving for Uy, Initial residual = 0.00526924, Final residual = 0.00015298, No Iterations 1
DILUPBiCG:  Solving for Uz, Initial residual = 0.00324125, Final residual = 7.46273e-05, No Iterations 1
DILUPBiCG:  Solving for T, Initial residual = 0.00902898, Final residual = 0.000149481, No Iterations 2
DICPCG:  Solving for p_rgh, Initial residual = 0.0070531, Final residual = 6.74652e-05, No Iterations 85
time step continuity errors : sum local = 1.06807e-05, global = -4.08327e-10, cumulative = 5.46477e-06
DILUPBiCG:  Solving for epsilon, Initial residual = 0.00877802, Final residual = 0.000872841, No Iterations 1
DILUPBiCG:  Solving for k, Initial residual = 0.0210439, Final residual = 0.000574407, No Iterations 2
ExecutionTime = 8.72 s  ClockTime = 9 s

 MassFlows:   acu380F56D59CF2B3DF6EFF9D0E6E8D39CB_outlet = -0.999992  acu380F56D59CF2B3DF6EFF9D0E6E8D39CB_inlet = 1.03843
 MassFlows:   rack2796428BA49E0232CAC645AEBC8DA5C1_inlet = 0.17  rack2796428BA49E0232CAC645AEBC8DA5C1_outlet = -0.208436
Time = 17.5

DILUPBiCG:  Solving for Ux, Initial residual = 0.0112751, Final residual = 0.000581861, No Iterations 1
DILUPBiCG:  Solving for Uy, Initial residual = 0.00526723, Final residual = 0.000157275, No Iterations 1
DILUPBiCG:  Solving for Uz, Initial residual = 0.00323189, Final residual = 7.43419e-05, No Iterations 1
DILUPBiCG:  Solving for T, Initial residual = 0.00877361, Final residual = 0.000819536, No Iterations 1
DICPCG:  Solving for p_rgh, Initial residual = 0.00699912, Final residual = 6.83561e-05, No Iterations 87
time step continuity errors : sum local = 1.08985e-05, global = -4.92033e-07, cumulative = 4.97273e-06
DILUPBiCG:  Solving for epsilon, Initial residual = 0.00892104, Final residual = 0.000272775, No Iterations 2
DILUPBiCG:  Solving for k, Initial residual = 0.0205665, Final residual = 0.000544263, No Iterations 2
ExecutionTime = 8.94 s  ClockTime = 9 s

 MassFlows:   acu380F56D59CF2B3DF6EFF9D0E6E8D39CB_outlet = -0.999993  acu380F56D59CF2B3DF6EFF9D0E6E8D39CB_inlet = 1.037
 MassFlows:   rack2796428BA49E0232CAC645AEBC8DA5C1_inlet = 0.17  rack2796428BA49E0232CAC645AEBC8DA5C1_outlet = -0.20705
Time = 18

DILUPBiCG:  Solving for Ux, Initial residual = 0.0113014, Final residual = 0.000597062, No Iterations 1
DILUPBiCG:  Solving for Uy, Initial residual = 0.00527554, Final residual = 0.000161014, No Iterations 1
DILUPBiCG:  Solving for Uz, Initial residual = 0.00322485, Final residual = 7.41205e-05, No Iterations 1
DILUPBiCG:  Solving for T, Initial residual = 0.00856128, Final residual = 0.000709733, No Iterations 1
DICPCG:  Solving for p_rgh, Initial residual = 0.00684626, Final residual = 6.71644e-05, No Iterations 87
time step continuity errors : sum local = 1.07722e-05, global = -4.35357e-07, cumulative = 4.53738e-06
DILUPBiCG:  Solving for epsilon, Initial residual = 0.00862869, Final residual = 0.000855475, No Iterations 1
DILUPBiCG:  Solving for k, Initial residual = 0.0200773, Final residual = 0.000530566, No Iterations 2
ExecutionTime = 9.16 s  ClockTime = 9 s

 MassFlows:   acu380F56D59CF2B3DF6EFF9D0E6E8D39CB_outlet = -0.999994  acu380F56D59CF2B3DF6EFF9D0E6E8D39CB_inlet = 1.03556
 MassFlows:   rack2796428BA49E0232CAC645AEBC8DA5C1_inlet = 0.17  rack2796428BA49E0232CAC645AEBC8DA5C1_outlet = -0.205609
Time = 18.5

DILUPBiCG:  Solving for Ux, Initial residual = 0.0113065, Final residual = 0.000617248, No Iterations 1
DILUPBiCG:  Solving for Uy, Initial residual = 0.00529848, Final residual = 0.000165126, No Iterations 1
DILUPBiCG:  Solving for Uz, Initial residual = 0.00322058, Final residual = 7.39561e-05, No Iterations 1
DILUPBiCG:  Solving for T, Initial residual = 0.00837485, Final residual = 0.000593781, No Iterations 1
DICPCG:  Solving for p_rgh, Initial residual = 0.00683458, Final residual = 6.51781e-05, No Iterations 87
time step continuity errors : sum local = 1.05318e-05, global = -1.79654e-07, cumulative = 4.35772e-06
DILUPBiCG:  Solving for epsilon, Initial residual = 0.00861262, Final residual = 0.000852378, No Iterations 1
DILUPBiCG:  Solving for k, Initial residual = 0.0196263, Final residual = 0.000549175, No Iterations 2
ExecutionTime = 9.37 s  ClockTime = 9 s

 MassFlows:   acu380F56D59CF2B3DF6EFF9D0E6E8D39CB_outlet = -0.999995  acu380F56D59CF2B3DF6EFF9D0E6E8D39CB_inlet = 1.03411
 MassFlows:   rack2796428BA49E0232CAC645AEBC8DA5C1_inlet = 0.17  rack2796428BA49E0232CAC645AEBC8DA5C1_outlet = -0.204136
Time = 19

DILUPBiCG:  Solving for Ux, Initial residual = 0.0112915, Final residual = 0.000631265, No Iterations 1
DILUPBiCG:  Solving for Uy, Initial residual = 0.00531578, Final residual = 0.000169171, No Iterations 1
DILUPBiCG:  Solving for Uz, Initial residual = 0.00321733, Final residual = 7.3956e-05, No Iterations 1
DILUPBiCG:  Solving for T, Initial residual = 0.00819809, Final residual = 0.000494155, No Iterations 1
DICPCG:  Solving for p_rgh, Initial residual = 0.00681887, Final residual = 6.71464e-05, No Iterations 87
time step continuity errors : sum local = 1.09322e-05, global = -7.89825e-08, cumulative = 4.27874e-06
DILUPBiCG:  Solving for epsilon, Initial residual = 0.00851247, Final residual = 0.000837203, No Iterations 1
DILUPBiCG:  Solving for k, Initial residual = 0.0191641, Final residual = 0.000644573, No Iterations 2
ExecutionTime = 9.59 s  ClockTime = 9 s

 MassFlows:   acu380F56D59CF2B3DF6EFF9D0E6E8D39CB_outlet = -0.999996  acu380F56D59CF2B3DF6EFF9D0E6E8D39CB_inlet = 1.0326
 MassFlows:   rack2796428BA49E0232CAC645AEBC8DA5C1_inlet = 0.17  rack2796428BA49E0232CAC645AEBC8DA5C1_outlet = -0.202613
Time = 19.5

DILUPBiCG:  Solving for Ux, Initial residual = 0.0113017, Final residual = 0.00064124, No Iterations 1
DILUPBiCG:  Solving for Uy, Initial residual = 0.00532834, Final residual = 0.000174362, No Iterations 1
DILUPBiCG:  Solving for Uz, Initial residual = 0.00321456, Final residual = 7.39015e-05, No Iterations 1
DILUPBiCG:  Solving for T, Initial residual = 0.00803067, Final residual = 0.000417833, No Iterations 1
DICPCG:  Solving for p_rgh, Initial residual = 0.00683217, Final residual = 6.50916e-05, No Iterations 136
time step continuity errors : sum local = 1.06796e-05, global = 1.6277e-09, cumulative = 4.28037e-06
DILUPBiCG:  Solving for epsilon, Initial residual = 0.00835471, Final residual = 0.000816671, No Iterations 1
DILUPBiCG:  Solving for k, Initial residual = 0.0186938, Final residual = 0.00080284, No Iterations 2
ExecutionTime = 9.83 s  ClockTime = 10 s

 MassFlows:   acu380F56D59CF2B3DF6EFF9D0E6E8D39CB_outlet = -0.999997  acu380F56D59CF2B3DF6EFF9D0E6E8D39CB_inlet = 1.03105
 MassFlows:   rack2796428BA49E0232CAC645AEBC8DA5C1_inlet = 0.17  rack2796428BA49E0232CAC645AEBC8DA5C1_outlet = -0.20105
Time = 20

DILUPBiCG:  Solving for Ux, Initial residual = 0.0113152, Final residual = 0.000650174, No Iterations 1
DILUPBiCG:  Solving for Uy, Initial residual = 0.00534286, Final residual = 0.000181201, No Iterations 1
DILUPBiCG:  Solving for Uz, Initial residual = 0.00321938, Final residual = 7.39274e-05, No Iterations 1
DILUPBiCG:  Solving for T, Initial residual = 0.00787045, Final residual = 0.000396534, No Iterations 1
DICPCG:  Solving for p_rgh, Initial residual = 0.00682955, Final residual = 6.62797e-05, No Iterations 78
time step continuity errors : sum local = 1.0954e-05, global = -7.46249e-08, cumulative = 4.20574e-06
DILUPBiCG:  Solving for epsilon, Initial residual = 0.00817411, Final residual = 0.000793252, No Iterations 1
DILUPBiCG:  Solving for k, Initial residual = 0.0182324, Final residual = 0.000975152, No Iterations 2
ExecutionTime = 10.03 s  ClockTime = 10 s

 MassFlows:   acu380F56D59CF2B3DF6EFF9D0E6E8D39CB_outlet = -0.999997  acu380F56D59CF2B3DF6EFF9D0E6E8D39CB_inlet = 1.02944
 MassFlows:   rack2796428BA49E0232CAC645AEBC8DA5C1_inlet = 0.17  rack2796428BA49E0232CAC645AEBC8DA5C1_outlet = -0.199454
Time = 20.5

DILUPBiCG:  Solving for Ux, Initial residual = 0.0113117, Final residual = 0.000661837, No Iterations 1
DILUPBiCG:  Solving for Uy, Initial residual = 0.00536332, Final residual = 0.000189309, No Iterations 1
DILUPBiCG:  Solving for Uz, Initial residual = 0.00321498, Final residual = 7.38063e-05, No Iterations 1
DILUPBiCG:  Solving for T, Initial residual = 0.00771529, Final residual = 0.000577971, No Iterations 1
DICPCG:  Solving for p_rgh, Initial residual = 0.00680004, Final residual = 6.67851e-05, No Iterations 75
time step continuity errors : sum local = 1.11276e-05, global = -2.78687e-07, cumulative = 3.92706e-06
DILUPBiCG:  Solving for epsilon, Initial residual = 0.00797738, Final residual = 0.000767991, No Iterations 1
DILUPBiCG:  Solving for k, Initial residual = 0.0177548, Final residual = 0.00115171, No Iterations 2
ExecutionTime = 10.23 s  ClockTime = 10 s

 MassFlows:   acu380F56D59CF2B3DF6EFF9D0E6E8D39CB_outlet = -0.999997  acu380F56D59CF2B3DF6EFF9D0E6E8D39CB_inlet = 1.02778
 MassFlows:   rack2796428BA49E0232CAC645AEBC8DA5C1_inlet = 0.17  rack2796428BA49E0232CAC645AEBC8DA5C1_outlet = -0.197813
Time = 21

DILUPBiCG:  Solving for Ux, Initial residual = 0.0112867, Final residual = 0.000676276, No Iterations 1
DILUPBiCG:  Solving for Uy, Initial residual = 0.00537749, Final residual = 0.000198984, No Iterations 1
DILUPBiCG:  Solving for Uz, Initial residual = 0.00321228, Final residual = 7.36763e-05, No Iterations 1
DILUPBiCG:  Solving for T, Initial residual = 0.00755972, Final residual = 0.000593574, No Iterations 2
DICPCG:  Solving for p_rgh, Initial residual = 0.00676269, Final residual = 6.60743e-05, No Iterations 73
time step continuity errors : sum local = 1.1102e-05, global = -2.79893e-07, cumulative = 3.64716e-06
DILUPBiCG:  Solving for epsilon, Initial residual = 0.0077697, Final residual = 0.000741571, No Iterations 1
DILUPBiCG:  Solving for k, Initial residual = 0.0172803, Final residual = 0.00121168, No Iterations 2
ExecutionTime = 10.43 s  ClockTime = 10 s

 MassFlows:   acu380F56D59CF2B3DF6EFF9D0E6E8D39CB_outlet = -0.999998  acu380F56D59CF2B3DF6EFF9D0E6E8D39CB_inlet = 1.02618
 MassFlows:   rack2796428BA49E0232CAC645AEBC8DA5C1_inlet = 0.17  rack2796428BA49E0232CAC645AEBC8DA5C1_outlet = -0.196212
Time = 21.5

DILUPBiCG:  Solving for Ux, Initial residual = 0.0112704, Final residual = 0.000691243, No Iterations 1
DILUPBiCG:  Solving for Uy, Initial residual = 0.00538691, Final residual = 0.00020991, No Iterations 1
DILUPBiCG:  Solving for Uz, Initial residual = 0.00320626, Final residual = 7.35045e-05, No Iterations 1
DILUPBiCG:  Solving for T, Initial residual = 0.00740774, Final residual = 2.20941e-05, No Iterations 3
DICPCG:  Solving for p_rgh, Initial residual = 0.00661202, Final residual = 6.58168e-05, No Iterations 73
time step continuity errors : sum local = 1.1153e-05, global = -2.02806e-07, cumulative = 3.44436e-06
DILUPBiCG:  Solving for epsilon, Initial residual = 0.00756647, Final residual = 0.000714403, No Iterations 1
DILUPBiCG:  Solving for k, Initial residual = 0.016795, Final residual = 0.00105217, No Iterations 2
ExecutionTime = 10.66 s  ClockTime = 11 s

 MassFlows:   acu380F56D59CF2B3DF6EFF9D0E6E8D39CB_outlet = -0.999998  acu380F56D59CF2B3DF6EFF9D0E6E8D39CB_inlet = 1.02468
 MassFlows:   rack2796428BA49E0232CAC645AEBC8DA5C1_inlet = 0.17  rack2796428BA49E0232CAC645AEBC8DA5C1_outlet = -0.194697
Time = 22

DILUPBiCG:  Solving for Ux, Initial residual = 0.0112456, Final residual = 0.000697768, No Iterations 1
DILUPBiCG:  Solving for Uy, Initial residual = 0.00539333, Final residual = 0.000221713, No Iterations 1
DILUPBiCG:  Solving for Uz, Initial residual = 0.00319814, Final residual = 7.32708e-05, No Iterations 1
DILUPBiCG:  Solving for T, Initial residual = 0.00728212, Final residual = 1.89508e-05, No Iterations 3
DICPCG:  Solving for p_rgh, Initial residual = 0.00649024, Final residual = 6.35043e-05, No Iterations 70
time step continuity errors : sum local = 1.08505e-05, global = -1.41102e-07, cumulative = 3.30326e-06
DILUPBiCG:  Solving for epsilon, Initial residual = 0.00735317, Final residual = 0.000688305, No Iterations 1
DILUPBiCG:  Solving for k, Initial residual = 0.0162942, Final residual = 0.000860652, No Iterations 2
ExecutionTime = 10.85 s  ClockTime = 11 s

 MassFlows:   acu380F56D59CF2B3DF6EFF9D0E6E8D39CB_outlet = -0.999998  acu380F56D59CF2B3DF6EFF9D0E6E8D39CB_inlet = 1.02318
 MassFlows:   rack2796428BA49E0232CAC645AEBC8DA5C1_inlet = 0.17  rack2796428BA49E0232CAC645AEBC8DA5C1_outlet = -0.193194
Time = 22.5

DILUPBiCG:  Solving for Ux, Initial residual = 0.0112103, Final residual = 0.000700101, No Iterations 1
DILUPBiCG:  Solving for Uy, Initial residual = 0.0054026, Final residual = 0.000236434, No Iterations 1
DILUPBiCG:  Solving for Uz, Initial residual = 0.00319016, Final residual = 7.30375e-05, No Iterations 1
DILUPBiCG:  Solving for T, Initial residual = 0.0071618, Final residual = 0.000400691, No Iterations 2
DICPCG:  Solving for p_rgh, Initial residual = 0.00636908, Final residual = 6.19207e-05, No Iterations 64
time step continuity errors : sum local = 1.06643e-05, global = 1.19253e-07, cumulative = 3.42251e-06
DILUPBiCG:  Solving for epsilon, Initial residual = 0.00713383, Final residual = 0.000661946, No Iterations 1
DILUPBiCG:  Solving for k, Initial residual = 0.0157897, Final residual = 0.000704005, No Iterations 2
ExecutionTime = 11.05 s  ClockTime = 11 s

 MassFlows:   acu380F56D59CF2B3DF6EFF9D0E6E8D39CB_outlet = -0.999999  acu380F56D59CF2B3DF6EFF9D0E6E8D39CB_inlet = 1.02177
 MassFlows:   rack2796428BA49E0232CAC645AEBC8DA5C1_inlet = 0.17  rack2796428BA49E0232CAC645AEBC8DA5C1_outlet = -0.191757
Time = 23

DILUPBiCG:  Solving for Ux, Initial residual = 0.0111584, Final residual = 0.00069992, No Iterations 1
DILUPBiCG:  Solving for Uy, Initial residual = 0.00541032, Final residual = 0.000253442, No Iterations 1
DILUPBiCG:  Solving for Uz, Initial residual = 0.00318405, Final residual = 7.2776e-05, No Iterations 1
DILUPBiCG:  Solving for T, Initial residual = 0.00705988, Final residual = 0.000307447, No Iterations 2
DICPCG:  Solving for p_rgh, Initial residual = 0.00631785, Final residual = 5.80382e-05, No Iterations 65
time step continuity errors : sum local = 1.00732e-05, global = 1.17558e-07, cumulative = 3.54007e-06
DILUPBiCG:  Solving for epsilon, Initial residual = 0.00692617, Final residual = 0.000637848, No Iterations 1
DILUPBiCG:  Solving for k, Initial residual = 0.0152975, Final residual = 0.000554992, No Iterations 2
ExecutionTime = 11.24 s  ClockTime = 11 s

 MassFlows:   acu380F56D59CF2B3DF6EFF9D0E6E8D39CB_outlet = -0.999999  acu380F56D59CF2B3DF6EFF9D0E6E8D39CB_inlet = 1.02038
 MassFlows:   rack2796428BA49E0232CAC645AEBC8DA5C1_inlet = 0.17  rack2796428BA49E0232CAC645AEBC8DA5C1_outlet = -0.190371
Time = 23.5

DILUPBiCG:  Solving for Ux, Initial residual = 0.0111138, Final residual = 0.000702003, No Iterations 1
DILUPBiCG:  Solving for Uy, Initial residual = 0.00542069, Final residual = 0.000275351, No Iterations 1
DILUPBiCG:  Solving for Uz, Initial residual = 0.00317526, Final residual = 7.24645e-05, No Iterations 1
DILUPBiCG:  Solving for T, Initial residual = 0.00696077, Final residual = 0.000234411, No Iterations 2
DICPCG:  Solving for p_rgh, Initial residual = 0.00626616, Final residual = 5.69952e-05, No Iterations 64
time step continuity errors : sum local = 9.96673e-06, global = 1.33225e-07, cumulative = 3.67329e-06
DILUPBiCG:  Solving for epsilon, Initial residual = 0.00673638, Final residual = 0.000615538, No Iterations 1
DILUPBiCG:  Solving for k, Initial residual = 0.0148364, Final residual = 3.86574e-05, No Iterations 4
ExecutionTime = 11.44 s  ClockTime = 11 s

 MassFlows:   acu380F56D59CF2B3DF6EFF9D0E6E8D39CB_outlet = -0.999999  acu380F56D59CF2B3DF6EFF9D0E6E8D39CB_inlet = 1.01902
 MassFlows:   rack2796428BA49E0232CAC645AEBC8DA5C1_inlet = 0.17  rack2796428BA49E0232CAC645AEBC8DA5C1_outlet = -0.189005
Time = 24

DILUPBiCG:  Solving for Ux, Initial residual = 0.0110648, Final residual = 0.000707124, No Iterations 1
DILUPBiCG:  Solving for Uy, Initial residual = 0.00542246, Final residual = 0.000303669, No Iterations 1
DILUPBiCG:  Solving for Uz, Initial residual = 0.00316487, Final residual = 7.21559e-05, No Iterations 1
DILUPBiCG:  Solving for T, Initial residual = 0.00686648, Final residual = 0.000186143, No Iterations 2
DICPCG:  Solving for p_rgh, Initial residual = 0.00627862, Final residual = 6.20201e-05, No Iterations 65
time step continuity errors : sum local = 1.09221e-05, global = 6.98515e-08, cumulative = 3.74314e-06
DILUPBiCG:  Solving for epsilon, Initial residual = 0.00656524, Final residual = 0.000594604, No Iterations 1
DILUPBiCG:  Solving for k, Initial residual = 0.0144035, Final residual = 0.000376572, No Iterations 2
ExecutionTime = 11.63 s  ClockTime = 12 s

 MassFlows:   acu380F56D59CF2B3DF6EFF9D0E6E8D39CB_outlet = -0.999999  acu380F56D59CF2B3DF6EFF9D0E6E8D39CB_inlet = 1.01769
 MassFlows:   rack2796428BA49E0232CAC645AEBC8DA5C1_inlet = 0.17  rack2796428BA49E0232CAC645AEBC8DA5C1_outlet = -0.187681
Time = 24.5

DILUPBiCG:  Solving for Ux, Initial residual = 0.011008, Final residual = 0.000712294, No Iterations 1
DILUPBiCG:  Solving for Uy, Initial residual = 0.00542862, Final residual = 0.000336857, No Iterations 1
DILUPBiCG:  Solving for Uz, Initial residual = 0.00315271, Final residual = 7.18702e-05, No Iterations 1
DILUPBiCG:  Solving for T, Initial residual = 0.00677214, Final residual = 0.000153767, No Iterations 2
DICPCG:  Solving for p_rgh, Initial residual = 0.00625066, Final residual = 5.56694e-05, No Iterations 64
time step continuity errors : sum local = 9.86899e-06, global = 1.47714e-07, cumulative = 3.89086e-06
DILUPBiCG:  Solving for epsilon, Initial residual = 0.00642985, Final residual = 0.000574352, No Iterations 1
DILUPBiCG:  Solving for k, Initial residual = 0.0140322, Final residual = 0.000323539, No Iterations 2
ExecutionTime = 11.82 s  ClockTime = 12 s

 MassFlows:   acu380F56D59CF2B3DF6EFF9D0E6E8D39CB_outlet = -0.999999  acu380F56D59CF2B3DF6EFF9D0E6E8D39CB_inlet = 1.01642
 MassFlows:   rack2796428BA49E0232CAC645AEBC8DA5C1_inlet = 0.17  rack2796428BA49E0232CAC645AEBC8DA5C1_outlet = -0.186409
Time = 25

DILUPBiCG:  Solving for Ux, Initial residual = 0.0109456, Final residual = 0.000714744, No Iterations 1
DILUPBiCG:  Solving for Uy, Initial residual = 0.00542932, Final residual = 0.000383103, No Iterations 1
DILUPBiCG:  Solving for Uz, Initial residual = 0.00313868, Final residual = 7.14863e-05, No Iterations 1
DILUPBiCG:  Solving for T, Initial residual = 0.00668429, Final residual = 0.000132206, No Iterations 2
DICPCG:  Solving for p_rgh, Initial residual = 0.00621087, Final residual = 6.08308e-05, No Iterations 78
time step continuity errors : sum local = 1.08555e-05, global = -4.63598e-07, cumulative = 3.42726e-06
DILUPBiCG:  Solving for epsilon, Initial residual = 0.00630234, Final residual = 0.000556317, No Iterations 1
DILUPBiCG:  Solving for k, Initial residual = 0.0137098, Final residual = 0.000310714, No Iterations 2
ExecutionTime = 12.03 s  ClockTime = 12 s

 MassFlows:   acu380F56D59CF2B3DF6EFF9D0E6E8D39CB_outlet = -0.999999  acu380F56D59CF2B3DF6EFF9D0E6E8D39CB_inlet = 1.01514
 MassFlows:   rack2796428BA49E0232CAC645AEBC8DA5C1_inlet = 0.17  rack2796428BA49E0232CAC645AEBC8DA5C1_outlet = -0.18519
Time = 25.5

DILUPBiCG:  Solving for Ux, Initial residual = 0.0108884, Final residual = 0.0007145, No Iterations 1
DILUPBiCG:  Solving for Uy, Initial residual = 0.00543851, Final residual = 0.000448559, No Iterations 1
DILUPBiCG:  Solving for Uz, Initial residual = 0.00312643, Final residual = 7.10902e-05, No Iterations 1
DILUPBiCG:  Solving for T, Initial residual = 0.00660099, Final residual = 0.000116854, No Iterations 2
DICPCG:  Solving for p_rgh, Initial residual = 0.00620089, Final residual = 6.07421e-05, No Iterations 70
time step continuity errors : sum local = 1.09106e-05, global = -7.54873e-07, cumulative = 2.67239e-06
DILUPBiCG:  Solving for epsilon, Initial residual = 0.00616507, Final residual = 0.000539214, No Iterations 1
DILUPBiCG:  Solving for k, Initial residual = 0.0134331, Final residual = 0.000303073, No Iterations 2
ExecutionTime = 12.23 s  ClockTime = 12 s

 MassFlows:   acu380F56D59CF2B3DF6EFF9D0E6E8D39CB_outlet = -0.999999  acu380F56D59CF2B3DF6EFF9D0E6E8D39CB_inlet = 1.01394
 MassFlows:   rack2796428BA49E0232CAC645AEBC8DA5C1_inlet = 0.17  rack2796428BA49E0232CAC645AEBC8DA5C1_outlet = -0.184018
Time = 26

DILUPBiCG:  Solving for Ux, Initial residual = 0.0108326, Final residual = 0.000712309, No Iterations 1
DILUPBiCG:  Solving for Uy, Initial residual = 0.00544404, Final residual = 0.000543253, No Iterations 1
DILUPBiCG:  Solving for Uz, Initial residual = 0.00311642, Final residual = 7.07459e-05, No Iterations 1
DILUPBiCG:  Solving for T, Initial residual = 0.00652127, Final residual = 0.000104697, No Iterations 2
DICPCG:  Solving for p_rgh, Initial residual = 0.00612824, Final residual = 6.10898e-05, No Iterations 79
time step continuity errors : sum local = 1.10423e-05, global = -1.27351e-06, cumulative = 1.39887e-06
DILUPBiCG:  Solving for epsilon, Initial residual = 0.00603773, Final residual = 0.000525825, No Iterations 1
DILUPBiCG:  Solving for k, Initial residual = 0.0132033, Final residual = 0.000299961, No Iterations 2
ExecutionTime = 12.46 s  ClockTime = 12 s

 MassFlows:   acu380F56D59CF2B3DF6EFF9D0E6E8D39CB_outlet = -0.999999  acu380F56D59CF2B3DF6EFF9D0E6E8D39CB_inlet = 1.01277
 MassFlows:   rack2796428BA49E0232CAC645AEBC8DA5C1_inlet = 0.17  rack2796428BA49E0232CAC645AEBC8DA5C1_outlet = -0.182891
Time = 26.5

DILUPBiCG:  Solving for Ux, Initial residual = 0.0107629, Final residual = 0.000711891, No Iterations 1
DILUPBiCG:  Solving for Uy, Initial residual = 0.00544759, Final residual = 6.76924e-06, No Iterations 2
DILUPBiCG:  Solving for Uz, Initial residual = 0.00310157, Final residual = 7.03085e-05, No Iterations 1
DILUPBiCG:  Solving for T, Initial residual = 0.00644484, Final residual = 9.48354e-05, No Iterations 2
DICPCG:  Solving for p_rgh, Initial residual = 0.00606748, Final residual = 5.80271e-05, No Iterations 81
time step continuity errors : sum local = 1.05521e-05, global = -2.00612e-06, cumulative = -6.07247e-07
DILUPBiCG:  Solving for epsilon, Initial residual = 0.0059344, Final residual = 0.000515177, No Iterations 1
DILUPBiCG:  Solving for k, Initial residual = 0.0130161, Final residual = 0.000297335, No Iterations 2
ExecutionTime = 12.67 s  ClockTime = 13 s

 MassFlows:   acu380F56D59CF2B3DF6EFF9D0E6E8D39CB_outlet = -0.999999  acu380F56D59CF2B3DF6EFF9D0E6E8D39CB_inlet = 1.01162
 MassFlows:   rack2796428BA49E0232CAC645AEBC8DA5C1_inlet = 0.17  rack2796428BA49E0232CAC645AEBC8DA5C1_outlet = -0.181808
Time = 27

DILUPBiCG:  Solving for Ux, Initial residual = 0.0106961, Final residual = 0.000703638, No Iterations 1
DILUPBiCG:  Solving for Uy, Initial residual = 0.00540105, Final residual = 6.73661e-06, No Iterations 2
DILUPBiCG:  Solving for Uz, Initial residual = 0.00309284, Final residual = 7.01056e-05, No Iterations 1
DILUPBiCG:  Solving for T, Initial residual = 0.00637155, Final residual = 8.66716e-05, No Iterations 2
DICPCG:  Solving for p_rgh, Initial residual = 0.00604703, Final residual = 5.94149e-05, No Iterations 31
time step continuity errors : sum local = 1.08675e-05, global = 6.18745e-07, cumulative = 1.1498e-08
DILUPBiCG:  Solving for epsilon, Initial residual = 0.00585334, Final residual = 0.0005059, No Iterations 1
DILUPBiCG:  Solving for k, Initial residual = 0.0128542, Final residual = 0.000293051, No Iterations 2
ExecutionTime = 12.85 s  ClockTime = 13 s

 MassFlows:   acu380F56D59CF2B3DF6EFF9D0E6E8D39CB_outlet = -1  acu380F56D59CF2B3DF6EFF9D0E6E8D39CB_inlet = 1.01083
 MassFlows:   rack2796428BA49E0232CAC645AEBC8DA5C1_inlet = 0.17  rack2796428BA49E0232CAC645AEBC8DA5C1_outlet = -0.180768
Time = 27.5

DILUPBiCG:  Solving for Ux, Initial residual = 0.0106292, Final residual = 0.000696021, No Iterations 1
DILUPBiCG:  Solving for Uy, Initial residual = 0.00538576, Final residual = 6.7212e-06, No Iterations 2
DILUPBiCG:  Solving for Uz, Initial residual = 0.00307728, Final residual = 6.97069e-05, No Iterations 1
DILUPBiCG:  Solving for T, Initial residual = 0.00630056, Final residual = 7.96711e-05, No Iterations 2
DICPCG:  Solving for p_rgh, Initial residual = 0.00598656, Final residual = 5.87685e-05, No Iterations 137
time step continuity errors : sum local = 1.0809e-05, global = -4.21903e-08, cumulative = -3.06923e-08
DILUPBiCG:  Solving for epsilon, Initial residual = 0.00579039, Final residual = 0.000499936, No Iterations 1
DILUPBiCG:  Solving for k, Initial residual = 0.0127129, Final residual = 0.000290007, No Iterations 2
ExecutionTime = 13.06 s  ClockTime = 13 s

 MassFlows:   acu380F56D59CF2B3DF6EFF9D0E6E8D39CB_outlet = -1  acu380F56D59CF2B3DF6EFF9D0E6E8D39CB_inlet = 1.00976
 MassFlows:   rack2796428BA49E0232CAC645AEBC8DA5C1_inlet = 0.17  rack2796428BA49E0232CAC645AEBC8DA5C1_outlet = -0.179768
Time = 28

DILUPBiCG:  Solving for Ux, Initial residual = 0.0105619, Final residual = 0.000688941, No Iterations 1
DILUPBiCG:  Solving for Uy, Initial residual = 0.0053773, Final residual = 6.6976e-06, No Iterations 2
DILUPBiCG:  Solving for Uz, Initial residual = 0.00306473, Final residual = 6.94699e-05, No Iterations 1
DILUPBiCG:  Solving for T, Initial residual = 0.00623182, Final residual = 7.35891e-05, No Iterations 2
DICPCG:  Solving for p_rgh, Initial residual = 0.00594362, Final residual = 5.75837e-05, No Iterations 66
time step continuity errors : sum local = 1.06523e-05, global = 1.62999e-07, cumulative = 1.32307e-07
DILUPBiCG:  Solving for epsilon, Initial residual = 0.0057104, Final residual = 0.000493797, No Iterations 1
DILUPBiCG:  Solving for k, Initial residual = 0.0125769, Final residual = 0.000286399, No Iterations 2
ExecutionTime = 13.26 s  ClockTime = 13 s

 MassFlows:   acu380F56D59CF2B3DF6EFF9D0E6E8D39CB_outlet = -1  acu380F56D59CF2B3DF6EFF9D0E6E8D39CB_inlet = 1.00882
 MassFlows:   rack2796428BA49E0232CAC645AEBC8DA5C1_inlet = 0.17  rack2796428BA49E0232CAC645AEBC8DA5C1_outlet = -0.178807
Time = 28.5

DILUPBiCG:  Solving for Ux, Initial residual = 0.0105012, Final residual = 0.000683185, No Iterations 1
DILUPBiCG:  Solving for Uy, Initial residual = 0.00537149, Final residual = 6.74712e-06, No Iterations 2
DILUPBiCG:  Solving for Uz, Initial residual = 0.00304819, Final residual = 6.90027e-05, No Iterations 1
DILUPBiCG:  Solving for T, Initial residual = 0.00616564, Final residual = 6.81872e-05, No Iterations 2
DICPCG:  Solving for p_rgh, Initial residual = 0.00588833, Final residual = 5.51543e-05, No Iterations 33
time step continuity errors : sum local = 1.02541e-05, global = 2.94906e-06, cumulative = 3.08136e-06
DILUPBiCG:  Solving for epsilon, Initial residual = 0.00562941, Final residual = 0.000487676, No Iterations 1
DILUPBiCG:  Solving for k, Initial residual = 0.0124423, Final residual = 0.000282678, No Iterations 2
ExecutionTime = 13.45 s  ClockTime = 13 s

 MassFlows:   acu380F56D59CF2B3DF6EFF9D0E6E8D39CB_outlet = -1  acu380F56D59CF2B3DF6EFF9D0E6E8D39CB_inlet = 1.00817
 MassFlows:   rack2796428BA49E0232CAC645AEBC8DA5C1_inlet = 0.17  rack2796428BA49E0232CAC645AEBC8DA5C1_outlet = -0.177885
Time = 29

DILUPBiCG:  Solving for Ux, Initial residual = 0.0104231, Final residual = 0.000678046, No Iterations 1
DILUPBiCG:  Solving for Uy, Initial residual = 0.00536862, Final residual = 6.86729e-06, No Iterations 2
DILUPBiCG:  Solving for Uz, Initial residual = 0.00303025, Final residual = 6.84806e-05, No Iterations 1
DILUPBiCG:  Solving for T, Initial residual = 0.00610226, Final residual = 6.33719e-05, No Iterations 2
DICPCG:  Solving for p_rgh, Initial residual = 0.00581373, Final residual = 5.69791e-05, No Iterations 65
time step continuity errors : sum local = 1.06456e-05, global = 1.475e-07, cumulative = 3.22886e-06
DILUPBiCG:  Solving for epsilon, Initial residual = 0.00556084, Final residual = 0.000482707, No Iterations 1
DILUPBiCG:  Solving for k, Initial residual = 0.0123145, Final residual = 0.000278558, No Iterations 2
ExecutionTime = 13.65 s  ClockTime = 14 s

 MassFlows:   acu380F56D59CF2B3DF6EFF9D0E6E8D39CB_outlet = -1  acu380F56D59CF2B3DF6EFF9D0E6E8D39CB_inlet = 1.00702
 MassFlows:   rack2796428BA49E0232CAC645AEBC8DA5C1_inlet = 0.17  rack2796428BA49E0232CAC645AEBC8DA5C1_outlet = -0.177002
Time = 29.5

DILUPBiCG:  Solving for Ux, Initial residual = 0.0103531, Final residual = 0.000672382, No Iterations 1
DILUPBiCG:  Solving for Uy, Initial residual = 0.00534195, Final residual = 7.20767e-06, No Iterations 2
DILUPBiCG:  Solving for Uz, Initial residual = 0.00301498, Final residual = 6.81972e-05, No Iterations 1
DILUPBiCG:  Solving for T, Initial residual = 0.00604116, Final residual = 5.90776e-05, No Iterations 2
DICPCG:  Solving for p_rgh, Initial residual = 0.00580129, Final residual = 5.72174e-05, No Iterations 33
time step continuity errors : sum local = 1.07408e-05, global = 2.60221e-06, cumulative = 5.83108e-06
DILUPBiCG:  Solving for epsilon, Initial residual = 0.00549487, Final residual = 0.00047923, No Iterations 1
DILUPBiCG:  Solving for k, Initial residual = 0.012189, Final residual = 0.00027338, No Iterations 2
ExecutionTime = 13.83 s  ClockTime = 14 s

 MassFlows:   acu380F56D59CF2B3DF6EFF9D0E6E8D39CB_outlet = -1  acu380F56D59CF2B3DF6EFF9D0E6E8D39CB_inlet = 1.00641
 MassFlows:   rack2796428BA49E0232CAC645AEBC8DA5C1_inlet = 0.17  rack2796428BA49E0232CAC645AEBC8DA5C1_outlet = -0.176158
Time = 30

DILUPBiCG:  Solving for Ux, Initial residual = 0.0102925, Final residual = 0.000666196, No Iterations 1
DILUPBiCG:  Solving for Uy, Initial residual = 0.00533496, Final residual = 7.76531e-06, No Iterations 2
DILUPBiCG:  Solving for Uz, Initial residual = 0.00299513, Final residual = 6.77528e-05, No Iterations 1
DILUPBiCG:  Solving for T, Initial residual = 0.00598161, Final residual = 5.52276e-05, No Iterations 2
DICPCG:  Solving for p_rgh, Initial residual = 0.00575646, Final residual = 5.30639e-05, No Iterations 68
time step continuity errors : sum local = 1.00073e-05, global = -4.25714e-07, cumulative = 5.40536e-06
DILUPBiCG:  Solving for epsilon, Initial residual = 0.00543386, Final residual = 0.000476492, No Iterations 1
DILUPBiCG:  Solving for k, Initial residual = 0.0120595, Final residual = 0.000268092, No Iterations 2
ExecutionTime = 14.03 s  ClockTime = 14 s

 MassFlows:   acu380F56D59CF2B3DF6EFF9D0E6E8D39CB_outlet = -1  acu380F56D59CF2B3DF6EFF9D0E6E8D39CB_inlet = 1.00531
 MassFlows:   rack2796428BA49E0232CAC645AEBC8DA5C1_inlet = 0.17  rack2796428BA49E0232CAC645AEBC8DA5C1_outlet = -0.175351
Time = 30.5

DILUPBiCG:  Solving for Ux, Initial residual = 0.0102238, Final residual = 0.000656764, No Iterations 1
DILUPBiCG:  Solving for Uy, Initial residual = 0.00531068, Final residual = 8.49236e-06, No Iterations 2
DILUPBiCG:  Solving for Uz, Initial residual = 0.00298119, Final residual = 6.74398e-05, No Iterations 1
DILUPBiCG:  Solving for T, Initial residual = 0.00592386, Final residual = 5.17586e-05, No Iterations 2
DICPCG:  Solving for p_rgh, Initial residual = 0.00572973, Final residual = 5.48973e-05, No Iterations 23
time step continuity errors : sum local = 1.03986e-05, global = 1.47889e-06, cumulative = 6.88425e-06
DILUPBiCG:  Solving for epsilon, Initial residual = 0.00537227, Final residual = 0.000473768, No Iterations 1
DILUPBiCG:  Solving for k, Initial residual = 0.011925, Final residual = 0.000262655, No Iterations 2
ExecutionTime = 14.21 s  ClockTime = 14 s

 MassFlows:   acu380F56D59CF2B3DF6EFF9D0E6E8D39CB_outlet = -1  acu380F56D59CF2B3DF6EFF9D0E6E8D39CB_inlet = 1.00472
 MassFlows:   rack2796428BA49E0232CAC645AEBC8DA5C1_inlet = 0.17  rack2796428BA49E0232CAC645AEBC8DA5C1_outlet = -0.17458
Time = 31

DILUPBiCG:  Solving for Ux, Initial residual = 0.0101468, Final residual = 0.000649919, No Iterations 1
DILUPBiCG:  Solving for Uy, Initial residual = 0.0053019, Final residual = 0.000474454, No Iterations 1
DILUPBiCG:  Solving for Uz, Initial residual = 0.00296349, Final residual = 6.70085e-05, No Iterations 1
DILUPBiCG:  Solving for T, Initial residual = 0.00586849, Final residual = 4.86345e-05, No Iterations 2
DICPCG:  Solving for p_rgh, Initial residual = 0.00569008, Final residual = 5.152e-05, No Iterations 143
time step continuity errors : sum local = 9.80007e-06, global = -3.515e-08, cumulative = 6.8491e-06
DILUPBiCG:  Solving for epsilon, Initial residual = 0.00529978, Final residual = 0.000470393, No Iterations 1
DILUPBiCG:  Solving for k, Initial residual = 0.0117852, Final residual = 0.000257318, No Iterations 2
ExecutionTime = 14.44 s  ClockTime = 14 s

 MassFlows:   acu380F56D59CF2B3DF6EFF9D0E6E8D39CB_outlet = -1  acu380F56D59CF2B3DF6EFF9D0E6E8D39CB_inlet = 1.00384
 MassFlows:   rack2796428BA49E0232CAC645AEBC8DA5C1_inlet = 0.17  rack2796428BA49E0232CAC645AEBC8DA5C1_outlet = -0.173848
Time = 31.5

DILUPBiCG:  Solving for Ux, Initial residual = 0.0100784, Final residual = 0.000638542, No Iterations 1
DILUPBiCG:  Solving for Uy, Initial residual = 0.00524444, Final residual = 0.00043845, No Iterations 1
DILUPBiCG:  Solving for Uz, Initial residual = 0.00295193, Final residual = 6.67987e-05, No Iterations 1
DILUPBiCG:  Solving for T, Initial residual = 0.0058159, Final residual = 4.58554e-05, No Iterations 2
DICPCG:  Solving for p_rgh, Initial residual = 0.00565401, Final residual = 5.38316e-05, No Iterations 27
time step continuity errors : sum local = 1.02864e-05, global = 2.15442e-06, cumulative = 9.00352e-06
DILUPBiCG:  Solving for epsilon, Initial residual = 0.00522765, Final residual = 0.000466455, No Iterations 1
DILUPBiCG:  Solving for k, Initial residual = 0.0116386, Final residual = 0.000252117, No Iterations 2
ExecutionTime = 14.62 s  ClockTime = 15 s

 MassFlows:   acu380F56D59CF2B3DF6EFF9D0E6E8D39CB_outlet = -1  acu380F56D59CF2B3DF6EFF9D0E6E8D39CB_inlet = 1.00336
 MassFlows:   rack2796428BA49E0232CAC645AEBC8DA5C1_inlet = 0.17  rack2796428BA49E0232CAC645AEBC8DA5C1_outlet = -0.173154
Time = 32

DILUPBiCG:  Solving for Ux, Initial residual = 0.010009, Final residual = 0.000631957, No Iterations 1
DILUPBiCG:  Solving for Uy, Initial residual = 0.00521607, Final residual = 0.000387003, No Iterations 1
DILUPBiCG:  Solving for Uz, Initial residual = 0.00292855, Final residual = 6.63107e-05, No Iterations 1
DILUPBiCG:  Solving for T, Initial residual = 0.00576608, Final residual = 4.34301e-05, No Iterations 2
DICPCG:  Solving for p_rgh, Initial residual = 0.00563349, Final residual = 5.63019e-05, No Iterations 78
time step continuity errors : sum local = 1.0802e-05, global = -4.03564e-08, cumulative = 8.96316e-06
DILUPBiCG:  Solving for epsilon, Initial residual = 0.00515031, Final residual = 0.000462377, No Iterations 1
DILUPBiCG:  Solving for k, Initial residual = 0.0114901, Final residual = 0.00024698, No Iterations 2
ExecutionTime = 14.88 s  ClockTime = 15 s

 MassFlows:   acu380F56D59CF2B3DF6EFF9D0E6E8D39CB_outlet = -1  acu380F56D59CF2B3DF6EFF9D0E6E8D39CB_inlet = 1.00249
 MassFlows:   rack2796428BA49E0232CAC645AEBC8DA5C1_inlet = 0.17  rack2796428BA49E0232CAC645AEBC8DA5C1_outlet = -0.172499
Time = 32.5

DILUPBiCG:  Solving for Ux, Initial residual = 0.00994461, Final residual = 0.000627656, No Iterations 1
DILUPBiCG:  Solving for Uy, Initial residual = 0.00519676, Final residual = 0.000342715, No Iterations 1
DILUPBiCG:  Solving for Uz, Initial residual = 0.0029084, Final residual = 6.58943e-05, No Iterations 1
DILUPBiCG:  Solving for T, Initial residual = 0.00571858, Final residual = 4.13913e-05, No Iterations 2
DICPCG:  Solving for p_rgh, Initial residual = 0.00563012, Final residual = 5.43004e-05, No Iterations 27
time step continuity errors : sum local = 1.04589e-05, global = 1.78925e-06, cumulative = 1.07524e-05
DILUPBiCG:  Solving for epsilon, Initial residual = 0.00507982, Final residual = 0.000458692, No Iterations 1
DILUPBiCG:  Solving for k, Initial residual = 0.0113414, Final residual = 0.000242266, No Iterations 2
ExecutionTime = 15.07 s  ClockTime = 15 s

 MassFlows:   acu380F56D59CF2B3DF6EFF9D0E6E8D39CB_outlet = -1  acu380F56D59CF2B3DF6EFF9D0E6E8D39CB_inlet = 1.00205
 MassFlows:   rack2796428BA49E0232CAC645AEBC8DA5C1_inlet = 0.17  rack2796428BA49E0232CAC645AEBC8DA5C1_outlet = -0.171881
Time = 33

DILUPBiCG:  Solving for Ux, Initial residual = 0.00986874, Final residual = 0.000622858, No Iterations 1
DILUPBiCG:  Solving for Uy, Initial residual = 0.00518878, Final residual = 0.000312734, No Iterations 1
DILUPBiCG:  Solving for Uz, Initial residual = 0.00288661, Final residual = 6.53564e-05, No Iterations 1
DILUPBiCG:  Solving for T, Initial residual = 0.00567214, Final residual = 3.96784e-05, No Iterations 2
DICPCG:  Solving for p_rgh, Initial residual = 0.00557032, Final residual = 4.92157e-05, No Iterations 75
time step continuity errors : sum local = 9.51543e-06, global = -8.78957e-07, cumulative = 9.87346e-06
DILUPBiCG:  Solving for epsilon, Initial residual = 0.00500478, Final residual = 0.00045523, No Iterations 1
DILUPBiCG:  Solving for k, Initial residual = 0.0111874, Final residual = 0.000237488, No Iterations 2
ExecutionTime = 15.27 s  ClockTime = 15 s

 MassFlows:   acu380F56D59CF2B3DF6EFF9D0E6E8D39CB_outlet = -1  acu380F56D59CF2B3DF6EFF9D0E6E8D39CB_inlet = 1.00122
 MassFlows:   rack2796428BA49E0232CAC645AEBC8DA5C1_inlet = 0.17  rack2796428BA49E0232CAC645AEBC8DA5C1_outlet = -0.1713
Time = 33.5

DILUPBiCG:  Solving for Ux, Initial residual = 0.00980584, Final residual = 0.000618528, No Iterations 1
DILUPBiCG:  Solving for Uy, Initial residual = 0.00516499, Final residual = 0.000295032, No Iterations 1
DILUPBiCG:  Solving for Uz, Initial residual = 0.00286938, Final residual = 6.49582e-05, No Iterations 1
DILUPBiCG:  Solving for T, Initial residual = 0.00562619, Final residual = 3.8226e-05, No Iterations 2
DICPCG:  Solving for p_rgh, Initial residual = 0.00555042, Final residual = 5.42134e-05, No Iterations 26
time step continuity errors : sum local = 1.05204e-05, global = 3.11624e-07, cumulative = 1.01851e-05
DILUPBiCG:  Solving for epsilon, Initial residual = 0.00492313, Final residual = 0.000451253, No Iterations 1
DILUPBiCG:  Solving for k, Initial residual = 0.0110281, Final residual = 0.000232444, No Iterations 2
ExecutionTime = 15.46 s  ClockTime = 15 s

 MassFlows:   acu380F56D59CF2B3DF6EFF9D0E6E8D39CB_outlet = -1  acu380F56D59CF2B3DF6EFF9D0E6E8D39CB_inlet = 1.00078
[...]
DILUPBiCG:  Solving for epsilon, Initial residual = 9.94196e-06, Final residual = 9.94196e-06, No Iterations 0
DILUPBiCG:  Solving for k, Initial residual = 2.32389e-05, Final residual = 4.79952e-06, No Iterations 1
ExecutionTime = 228.28 s  ClockTime = 232 s

 MassFlows:   acu380F56D59CF2B3DF6EFF9D0E6E8D39CB_outlet = -1  acu380F56D59CF2B3DF6EFF9D0E6E8D39CB_inlet = 1.00933
 MassFlows:   rack2796428BA49E0232CAC645AEBC8DA5C1_inlet = 0.17  rack2796428BA49E0232CAC645AEBC8DA5C1_outlet = -0.179339
Time = 592.5

DILUPBiCG:  Solving for Ux, Initial residual = 6.73368e-05, Final residual = 5.99066e-06, No Iterations 1
DILUPBiCG:  Solving for Uy, Initial residual = 4.2934e-05, Final residual = 2.47262e-06, No Iterations 1
DILUPBiCG:  Solving for Uz, Initial residual = 1.68546e-05, Final residual = 7.63777e-07, No Iterations 1
DILUPBiCG:  Solving for T, Initial residual = 0.00021048, Final residual = 1.27665e-05, No Iterations 1
DICPCG:  Solving for p_rgh, Initial residual = 0.000370602, Final residual = 3.69585e-06, No Iterations 18
time step continuity errors : sum local = 1.11096e-06, global = -2.58194e-07, cumulative = 8.50404e-05
DILUPBiCG:  Solving for epsilon, Initial residual = 1.43861e-05, Final residual = 1.76295e-06, No Iterations 1
DILUPBiCG:  Solving for k, Initial residual = 2.09995e-05, Final residual = 4.3848e-06, No Iterations 1
ExecutionTime = 228.55 s  ClockTime = 233 s

 MassFlows:   acu380F56D59CF2B3DF6EFF9D0E6E8D39CB_outlet = -1  acu380F56D59CF2B3DF6EFF9D0E6E8D39CB_inlet = 1.00931
 MassFlows:   rack2796428BA49E0232CAC645AEBC8DA5C1_inlet = 0.17  rack2796428BA49E0232CAC645AEBC8DA5C1_outlet = -0.179337
Time = 593

DILUPBiCG:  Solving for Ux, Initial residual = 6.72875e-05, Final residual = 9.19733e-08, No Iterations 2
DILUPBiCG:  Solving for Uy, Initial residual = 4.25332e-05, Final residual = 1.79286e-06, No Iterations 1
DILUPBiCG:  Solving for Uz, Initial residual = 1.6679e-05, Final residual = 8.03076e-07, No Iterations 1
DILUPBiCG:  Solving for T, Initial residual = 0.000209456, Final residual = 1.24466e-05, No Iterations 1
DICPCG:  Solving for p_rgh, Initial residual = 0.000370855, Final residual = 3.65663e-06, No Iterations 28
time step continuity errors : sum local = 1.1e-06, global = -2.12453e-07, cumulative = 8.48279e-05
DILUPBiCG:  Solving for epsilon, Initial residual = 9.71847e-06, Final residual = 9.71847e-06, No Iterations 0
DILUPBiCG:  Solving for k, Initial residual = 2.11598e-05, Final residual = 7.30092e-06, No Iterations 1
ExecutionTime = 228.73 s  ClockTime = 233 s

 MassFlows:   acu380F56D59CF2B3DF6EFF9D0E6E8D39CB_outlet = -1  acu380F56D59CF2B3DF6EFF9D0E6E8D39CB_inlet = 1.00932
 MassFlows:   rack2796428BA49E0232CAC645AEBC8DA5C1_inlet = 0.17  rack2796428BA49E0232CAC645AEBC8DA5C1_outlet = -0.179337
Time = 593.5

DILUPBiCG:  Solving for Ux, Initial residual = 6.6737e-05, Final residual = 6.52884e-06, No Iterations 1
DILUPBiCG:  Solving for Uy, Initial residual = 4.23555e-05, Final residual = 2.49968e-06, No Iterations 1
DILUPBiCG:  Solving for Uz, Initial residual = 1.67284e-05, Final residual = 6.90548e-07, No Iterations 1
DILUPBiCG:  Solving for T, Initial residual = 0.000208921, Final residual = 1.28052e-05, No Iterations 1
DICPCG:  Solving for p_rgh, Initial residual = 0.000370394, Final residual = 3.53804e-06, No Iterations 19
time step continuity errors : sum local = 1.06415e-06, global = -1.21744e-07, cumulative = 8.47062e-05
DILUPBiCG:  Solving for epsilon, Initial residual = 1.08625e-05, Final residual = 1.88143e-06, No Iterations 1
DILUPBiCG:  Solving for k, Initial residual = 2.01487e-05, Final residual = 3.83452e-07, No Iterations 2
ExecutionTime = 228.9 s  ClockTime = 233 s

 MassFlows:   acu380F56D59CF2B3DF6EFF9D0E6E8D39CB_outlet = -1  acu380F56D59CF2B3DF6EFF9D0E6E8D39CB_inlet = 1.00932
 MassFlows:   rack2796428BA49E0232CAC645AEBC8DA5C1_inlet = 0.17  rack2796428BA49E0232CAC645AEBC8DA5C1_outlet = -0.179336
Time = 594

DILUPBiCG:  Solving for Ux, Initial residual = 6.68175e-05, Final residual = 9.0368e-08, No Iterations 2
DILUPBiCG:  Solving for Uy, Initial residual = 4.22756e-05, Final residual = 1.74229e-06, No Iterations 1
DILUPBiCG:  Solving for Uz, Initial residual = 1.66027e-05, Final residual = 9.11485e-07, No Iterations 1
DILUPBiCG:  Solving for T, Initial residual = 0.000207871, Final residual = 1.2408e-05, No Iterations 1
DICPCG:  Solving for p_rgh, Initial residual = 0.00037033, Final residual = 3.61489e-06, No Iterations 23
time step continuity errors : sum local = 1.08748e-06, global = -2.34963e-07, cumulative = 8.44712e-05
DILUPBiCG:  Solving for epsilon, Initial residual = 7.99981e-06, Final residual = 7.99981e-06, No Iterations 0
DILUPBiCG:  Solving for k, Initial residual = 1.7136e-05, Final residual = 3.14246e-07, No Iterations 2
ExecutionTime = 229.07 s  ClockTime = 233 s

 MassFlows:   acu380F56D59CF2B3DF6EFF9D0E6E8D39CB_outlet = -1  acu380F56D59CF2B3DF6EFF9D0E6E8D39CB_inlet = 1.00931
 MassFlows:   rack2796428BA49E0232CAC645AEBC8DA5C1_inlet = 0.17  rack2796428BA49E0232CAC645AEBC8DA5C1_outlet = -0.179336
Time = 594.5

DILUPBiCG:  Solving for Ux, Initial residual = 6.65574e-05, Final residual = 5.58215e-06, No Iterations 1
DILUPBiCG:  Solving for Uy, Initial residual = 4.2192e-05, Final residual = 2.66484e-06, No Iterations 1
DILUPBiCG:  Solving for Uz, Initial residual = 1.65571e-05, Final residual = 6.59587e-07, No Iterations 1
DILUPBiCG:  Solving for T, Initial residual = 0.00020729, Final residual = 1.26924e-05, No Iterations 1
DICPCG:  Solving for p_rgh, Initial residual = 0.000367913, Final residual = 3.42088e-06, No Iterations 18
time step continuity errors : sum local = 1.02892e-06, global = -1.25075e-07, cumulative = 8.43462e-05
DILUPBiCG:  Solving for epsilon, Initial residual = 8.54902e-06, Final residual = 8.54902e-06, No Iterations 0
DILUPBiCG:  Solving for k, Initial residual = 2.09532e-05, Final residual = 3.73498e-07, No Iterations 2
ExecutionTime = 229.25 s  ClockTime = 233 s

 MassFlows:   acu380F56D59CF2B3DF6EFF9D0E6E8D39CB_outlet = -1  acu380F56D59CF2B3DF6EFF9D0E6E8D39CB_inlet = 1.00932
 MassFlows:   rack2796428BA49E0232CAC645AEBC8DA5C1_inlet = 0.17  rack2796428BA49E0232CAC645AEBC8DA5C1_outlet = -0.179336
Time = 595

DILUPBiCG:  Solving for Ux, Initial residual = 6.60567e-05, Final residual = 1.00242e-07, No Iterations 2
DILUPBiCG:  Solving for Uy, Initial residual = 4.18945e-05, Final residual = 1.72613e-06, No Iterations 1
DILUPBiCG:  Solving for Uz, Initial residual = 1.64516e-05, Final residual = 9.44491e-07, No Iterations 1
DILUPBiCG:  Solving for T, Initial residual = 0.000206373, Final residual = 1.23193e-05, No Iterations 1
DICPCG:  Solving for p_rgh, Initial residual = 0.000370601, Final residual = 3.35096e-06, No Iterations 68
time step continuity errors : sum local = 1.00812e-06, global = 1.09734e-07, cumulative = 8.44559e-05
DILUPBiCG:  Solving for epsilon, Initial residual = 1.26373e-05, Final residual = 1.41763e-07, No Iterations 2
DILUPBiCG:  Solving for k, Initial residual = 1.90171e-05, Final residual = 3.49043e-07, No Iterations 2
ExecutionTime = 229.45 s  ClockTime = 234 s

 MassFlows:   acu380F56D59CF2B3DF6EFF9D0E6E8D39CB_outlet = -1  acu380F56D59CF2B3DF6EFF9D0E6E8D39CB_inlet = 1.00935
 MassFlows:   rack2796428BA49E0232CAC645AEBC8DA5C1_inlet = 0.17  rack2796428BA49E0232CAC645AEBC8DA5C1_outlet = -0.179335
Time = 595.5

DILUPBiCG:  Solving for Ux, Initial residual = 6.57132e-05, Final residual = 4.38507e-06, No Iterations 1
DILUPBiCG:  Solving for Uy, Initial residual = 4.22329e-05, Final residual = 2.60145e-06, No Iterations 1
DILUPBiCG:  Solving for Uz, Initial residual = 1.65192e-05, Final residual = 7.00997e-07, No Iterations 1
DILUPBiCG:  Solving for T, Initial residual = 0.000205786, Final residual = 1.26035e-05, No Iterations 1
DICPCG:  Solving for p_rgh, Initial residual = 0.0003671, Final residual = 3.6152e-06, No Iterations 21
time step continuity errors : sum local = 1.08729e-06, global = 2.75268e-07, cumulative = 8.47312e-05
DILUPBiCG:  Solving for epsilon, Initial residual = 8.89805e-06, Final residual = 8.89805e-06, No Iterations 0
DILUPBiCG:  Solving for k, Initial residual = 1.99583e-05, Final residual = 3.84694e-07, No Iterations 2
ExecutionTime = 229.63 s  ClockTime = 234 s

 MassFlows:   acu380F56D59CF2B3DF6EFF9D0E6E8D39CB_outlet = -1  acu380F56D59CF2B3DF6EFF9D0E6E8D39CB_inlet = 1.00936
 MassFlows:   rack2796428BA49E0232CAC645AEBC8DA5C1_inlet = 0.17  rack2796428BA49E0232CAC645AEBC8DA5C1_outlet = -0.179335
Time = 596

DILUPBiCG:  Solving for Ux, Initial residual = 6.55458e-05, Final residual = 9.85425e-08, No Iterations 2
DILUPBiCG:  Solving for Uy, Initial residual = 4.13843e-05, Final residual = 1.67074e-06, No Iterations 1
DILUPBiCG:  Solving for Uz, Initial residual = 1.64123e-05, Final residual = 7.57206e-07, No Iterations 1
DILUPBiCG:  Solving for T, Initial residual = 0.00020496, Final residual = 1.22718e-05, No Iterations 1
DICPCG:  Solving for p_rgh, Initial residual = 0.000369569, Final residual = 3.61796e-06, No Iterations 59
time step continuity errors : sum local = 1.08854e-06, global = 4.88439e-08, cumulative = 8.478e-05
DILUPBiCG:  Solving for epsilon, Initial residual = 9.78849e-06, Final residual = 9.78849e-06, No Iterations 0
DILUPBiCG:  Solving for k, Initial residual = 2.26596e-05, Final residual = 4.17206e-07, No Iterations 2
ExecutionTime = 229.83 s  ClockTime = 234 s

 MassFlows:   acu380F56D59CF2B3DF6EFF9D0E6E8D39CB_outlet = -1  acu380F56D59CF2B3DF6EFF9D0E6E8D39CB_inlet = 1.00934
 MassFlows:   rack2796428BA49E0232CAC645AEBC8DA5C1_inlet = 0.17  rack2796428BA49E0232CAC645AEBC8DA5C1_outlet = -0.179335
Time = 596.5

DILUPBiCG:  Solving for Ux, Initial residual = 6.47738e-05, Final residual = 6.34761e-06, No Iterations 1
DILUPBiCG:  Solving for Uy, Initial residual = 4.18905e-05, Final residual = 2.462e-06, No Iterations 1
DILUPBiCG:  Solving for Uz, Initial residual = 1.63301e-05, Final residual = 6.93357e-07, No Iterations 1
DILUPBiCG:  Solving for T, Initial residual = 0.000204381, Final residual = 1.25287e-05, No Iterations 1
DICPCG:  Solving for p_rgh, Initial residual = 0.000369071, Final residual = 3.61103e-06, No Iterations 21
time step continuity errors : sum local = 1.08589e-06, global = -3.70949e-08, cumulative = 8.47429e-05
DILUPBiCG:  Solving for epsilon, Initial residual = 1.40606e-05, Final residual = 1.57434e-07, No Iterations 2
DILUPBiCG:  Solving for k, Initial residual = 2.05184e-05, Final residual = 3.9376e-07, No Iterations 2
ExecutionTime = 230.01 s  ClockTime = 234 s

 MassFlows:   acu380F56D59CF2B3DF6EFF9D0E6E8D39CB_outlet = -1  acu380F56D59CF2B3DF6EFF9D0E6E8D39CB_inlet = 1.00933
 MassFlows:   rack2796428BA49E0232CAC645AEBC8DA5C1_inlet = 0.17  rack2796428BA49E0232CAC645AEBC8DA5C1_outlet = -0.179334
Time = 597

DILUPBiCG:  Solving for Ux, Initial residual = 6.53354e-05, Final residual = 9.41767e-08, No Iterations 2
DILUPBiCG:  Solving for Uy, Initial residual = 4.10767e-05, Final residual = 1.73698e-06, No Iterations 1
DILUPBiCG:  Solving for Uz, Initial residual = 1.6138e-05, Final residual = 7.40972e-07, No Iterations 1
DILUPBiCG:  Solving for T, Initial residual = 0.000203461, Final residual = 1.2183e-05, No Iterations 1
DICPCG:  Solving for p_rgh, Initial residual = 0.000368807, Final residual = 3.469e-06, No Iterations 21
time step continuity errors : sum local = 1.04381e-06, global = -1.60816e-07, cumulative = 8.45821e-05
DILUPBiCG:  Solving for epsilon, Initial residual = 9.54658e-06, Final residual = 9.54658e-06, No Iterations 0
DILUPBiCG:  Solving for k, Initial residual = 2.08287e-05, Final residual = 4.16389e-07, No Iterations 2
ExecutionTime = 230.18 s  ClockTime = 234 s

 MassFlows:   acu380F56D59CF2B3DF6EFF9D0E6E8D39CB_outlet = -1  acu380F56D59CF2B3DF6EFF9D0E6E8D39CB_inlet = 1.00932
 MassFlows:   rack2796428BA49E0232CAC645AEBC8DA5C1_inlet = 0.17  rack2796428BA49E0232CAC645AEBC8DA5C1_outlet = -0.179334
Time = 597.5

DILUPBiCG:  Solving for Ux, Initial residual = 6.50107e-05, Final residual = 4.709e-06, No Iterations 1
DILUPBiCG:  Solving for Uy, Initial residual = 4.11168e-05, Final residual = 2.43785e-06, No Iterations 1
DILUPBiCG:  Solving for Uz, Initial residual = 1.6221e-05, Final residual = 6.95649e-07, No Iterations 1
DILUPBiCG:  Solving for T, Initial residual = 0.000202877, Final residual = 1.25041e-05, No Iterations 1
DICPCG:  Solving for p_rgh, Initial residual = 0.000368279, Final residual = 3.59053e-06, No Iterations 19
time step continuity errors : sum local = 1.08003e-06, global = -2.4178e-07, cumulative = 8.43403e-05
DILUPBiCG:  Solving for epsilon, Initial residual = 1.05506e-05, Final residual = 4.74321e-06, No Iterations 1
DILUPBiCG:  Solving for k, Initial residual = 1.75153e-05, Final residual = 3.41555e-07, No Iterations 2
ExecutionTime = 230.35 s  ClockTime = 235 s

 MassFlows:   acu380F56D59CF2B3DF6EFF9D0E6E8D39CB_outlet = -1  acu380F56D59CF2B3DF6EFF9D0E6E8D39CB_inlet = 1.00931
 MassFlows:   rack2796428BA49E0232CAC645AEBC8DA5C1_inlet = 0.17  rack2796428BA49E0232CAC645AEBC8DA5C1_outlet = -0.179334
Time = 598

DILUPBiCG:  Solving for Ux, Initial residual = 6.47188e-05, Final residual = 9.27055e-08, No Iterations 2
DILUPBiCG:  Solving for Uy, Initial residual = 4.09911e-05, Final residual = 1.70575e-06, No Iterations 1
DILUPBiCG:  Solving for Uz, Initial residual = 1.61337e-05, Final residual = 8.05587e-07, No Iterations 1
DILUPBiCG:  Solving for T, Initial residual = 0.000201959, Final residual = 1.21329e-05, No Iterations 1
DICPCG:  Solving for p_rgh, Initial residual = 0.000369467, Final residual = 3.68848e-06, No Iterations 61
time step continuity errors : sum local = 1.10983e-06, global = 4.21086e-08, cumulative = 8.43824e-05
DILUPBiCG:  Solving for epsilon, Initial residual = 6.3446e-06, Final residual = 6.3446e-06, No Iterations 0
DILUPBiCG:  Solving for k, Initial residual = 1.63781e-05, Final residual = 4.4475e-06, No Iterations 1
ExecutionTime = 230.55 s  ClockTime = 235 s

 MassFlows:   acu380F56D59CF2B3DF6EFF9D0E6E8D39CB_outlet = -1  acu380F56D59CF2B3DF6EFF9D0E6E8D39CB_inlet = 1.00934
 MassFlows:   rack2796428BA49E0232CAC645AEBC8DA5C1_inlet = 0.17  rack2796428BA49E0232CAC645AEBC8DA5C1_outlet = -0.179334
Time = 598.5

DILUPBiCG:  Solving for Ux, Initial residual = 6.37157e-05, Final residual = 4.10032e-06, No Iterations 1
DILUPBiCG:  Solving for Uy, Initial residual = 4.10706e-05, Final residual = 2.53702e-06, No Iterations 1
DILUPBiCG:  Solving for Uz, Initial residual = 1.62134e-05, Final residual = 6.87628e-07, No Iterations 1
DILUPBiCG:  Solving for T, Initial residual = 0.00020153, Final residual = 1.24436e-05, No Iterations 1
DICPCG:  Solving for p_rgh, Initial residual = 0.000367939, Final residual = 3.53465e-06, No Iterations 23
time step continuity errors : sum local = 1.06326e-06, global = 2.23916e-07, cumulative = 8.46063e-05
DILUPBiCG:  Solving for epsilon, Initial residual = 6.69013e-06, Final residual = 6.69013e-06, No Iterations 0
DILUPBiCG:  Solving for k, Initial residual = 2.01085e-05, Final residual = 5.10066e-06, No Iterations 1
ExecutionTime = 230.73 s  ClockTime = 235 s

 MassFlows:   acu380F56D59CF2B3DF6EFF9D0E6E8D39CB_outlet = -1  acu380F56D59CF2B3DF6EFF9D0E6E8D39CB_inlet = 1.00935
 MassFlows:   rack2796428BA49E0232CAC645AEBC8DA5C1_inlet = 0.17  rack2796428BA49E0232CAC645AEBC8DA5C1_outlet = -0.179333
Time = 599

DILUPBiCG:  Solving for Ux, Initial residual = 6.40408e-05, Final residual = 8.53541e-08, No Iterations 2
DILUPBiCG:  Solving for Uy, Initial residual = 4.05911e-05, Final residual = 1.72906e-06, No Iterations 1
DILUPBiCG:  Solving for Uz, Initial residual = 1.60123e-05, Final residual = 8.26596e-07, No Iterations 1
DILUPBiCG:  Solving for T, Initial residual = 0.000200646, Final residual = 1.20306e-05, No Iterations 1
DICPCG:  Solving for p_rgh, Initial residual = 0.000370308, Final residual = 3.45185e-06, No Iterations 20
time step continuity errors : sum local = 1.0386e-06, global = 2.69412e-07, cumulative = 8.48757e-05
DILUPBiCG:  Solving for epsilon, Initial residual = 1.07629e-05, Final residual = 1.2304e-06, No Iterations 1
DILUPBiCG:  Solving for k, Initial residual = 1.83226e-05, Final residual = 4.36032e-06, No Iterations 1
ExecutionTime = 230.9 s  ClockTime = 235 s

 MassFlows:   acu380F56D59CF2B3DF6EFF9D0E6E8D39CB_outlet = -1  acu380F56D59CF2B3DF6EFF9D0E6E8D39CB_inlet = 1.00936
 MassFlows:   rack2796428BA49E0232CAC645AEBC8DA5C1_inlet = 0.17  rack2796428BA49E0232CAC645AEBC8DA5C1_outlet = -0.179333
Time = 599.5

DILUPBiCG:  Solving for Ux, Initial residual = 6.39367e-05, Final residual = 4.29458e-06, No Iterations 1
DILUPBiCG:  Solving for Uy, Initial residual = 4.06801e-05, Final residual = 2.69358e-06, No Iterations 1
DILUPBiCG:  Solving for Uz, Initial residual = 1.59646e-05, Final residual = 6.55953e-07, No Iterations 1
DILUPBiCG:  Solving for T, Initial residual = 0.000200098, Final residual = 1.23151e-05, No Iterations 1
DICPCG:  Solving for p_rgh, Initial residual = 0.000366224, Final residual = 3.60341e-06, No Iterations 18
time step continuity errors : sum local = 1.08384e-06, global = 4.30139e-07, cumulative = 8.53059e-05
DILUPBiCG:  Solving for epsilon, Initial residual = 8.1282e-06, Final residual = 8.1282e-06, No Iterations 0
DILUPBiCG:  Solving for k, Initial residual = 1.91108e-05, Final residual = 5.58043e-06, No Iterations 1
ExecutionTime = 231.07 s  ClockTime = 235 s

 MassFlows:   acu380F56D59CF2B3DF6EFF9D0E6E8D39CB_outlet = -1  acu380F56D59CF2B3DF6EFF9D0E6E8D39CB_inlet = 1.00937
 MassFlows:   rack2796428BA49E0232CAC645AEBC8DA5C1_inlet = 0.17  rack2796428BA49E0232CAC645AEBC8DA5C1_outlet = -0.179332
Time = 600

DILUPBiCG:  Solving for Ux, Initial residual = 6.32123e-05, Final residual = 8.27159e-08, No Iterations 2
DILUPBiCG:  Solving for Uy, Initial residual = 3.99695e-05, Final residual = 1.67219e-06, No Iterations 1
DILUPBiCG:  Solving for Uz, Initial residual = 1.59475e-05, Final residual = 8.07769e-07, No Iterations 1
DILUPBiCG:  Solving for T, Initial residual = 0.000199331, Final residual = 1.19855e-05, No Iterations 1
DICPCG:  Solving for p_rgh, Initial residual = 0.000369182, Final residual = 3.63339e-06, No Iterations 63
time step continuity errors : sum local = 1.09323e-06, global = 5.44432e-08, cumulative = 8.53603e-05
DILUPBiCG:  Solving for epsilon, Initial residual = 8.97644e-06, Final residual = 8.97644e-06, No Iterations 0
DILUPBiCG:  Solving for k, Initial residual = 2.19386e-05, Final residual = 6.67211e-06, No Iterations 1
ExecutionTime = 231.38 s  ClockTime = 236 s

Expression rack_inlet_outlet_temp on rack2796428BA49E0232CAC645AEBC8DA5C1_inlet:  weightedAverage=289.263
Expression rack_inlet_outlet_temp on rack2796428BA49E0232CAC645AEBC8DA5C1_outlet:  weightedAverage=299.086
Expression AHU_supply_return_temp on acu380F56D59CF2B3DF6EFF9D0E6E8D39CB_outlet:  weightedAverage=289.15
Expression AHU_supply_return_temp on acu380F56D59CF2B3DF6EFF9D0E6E8D39CB_inlet:  weightedAverage=291.038
 MassFlows:   acu380F56D59CF2B3DF6EFF9D0E6E8D39CB_outlet = -1  acu380F56D59CF2B3DF6EFF9D0E6E8D39CB_inlet = 1.00934
 MassFlows:   rack2796428BA49E0232CAC645AEBC8DA5C1_inlet = 0.17  rack2796428BA49E0232CAC645AEBC8DA5C1_outlet = -0.179332
Expression weightedVolAverageflowThruZone :  average=2.57931 max=2.57931 min=2.57931
Expression acusupply_positive :  sum=0
Expression acusupply_negative :  sum=-1.00955
Expression acureturn_positive :  sum=0.00472774
Expression acureturn_negative :  sum=-0.959473
Expression rackinlet_negative :  sum=-0.103684
Expression rackinlet_positive :  sum=0.0132655
Expression rackoutlet_negative :  sum=-0.180518
Expression rackoutlet_positive :  sum=0
Expression floorvent_0.9positive :  sum=0.966041
Expression floorvent_0.9negative :  sum=0
Expression floorvent_0.8positive :  sum=0.978225
Expression floorvent_0.8negative :  sum=0
Expression floorvent_0.75positive :  sum=1.00431
Expression floorvent_0.75negative :  sum=0
Expression floorvent_0.7positive :  sum=1.0828
Expression floorvent_0.7negative :  sum=0
End

Finalising parallel run
