/*---------------------------------------------------------------------------*\
| =========                 |                                                 |
| \\      /  F ield         | OpenFOAM: The Open Source CFD Toolbox           |
|  \\    /   O peration     | Version:  2.3.1                                 |
|   \\  /    A nd           | Web:      www.OpenFOAM.org                      |
|    \\/     M anipulation  |                                                 |
\*---------------------------------------------------------------------------*/
Build  : 2.3.1-bcfaaa7b8660
Exec   : refineMesh -dict system/refineMeshDict -overwrite
Date   : Sep 24 2015
Time   : 07:26:16
Host   : "cissy.4energy.solutions"
PID    : 62716
Case   : /media/cissy/cfd/OpenFOAM/root-2.3.1/run/tutorials/heatTransfer/buoyantBoussinesqSimpleFoam/benchmark_smartset/scalarTransportFoamTest/2D/1acu1rack
nProcs : 1
sigFpe : Enabling floating point exception trapping (FOAM_SIGFPE).
fileModificationChecking : Monitoring run-time modified files using timeStampMaster
allowSystemOperations : Allowing user-supplied system call operations

// * * * * * * * * * * * * * * * * * * * * * * * * * * * * * * * * * * * * * //
Create time

Create polyMesh for time = 0

Mesh edge statistics:
    x aligned :  number:52622	minLen:0.1	maxLen:0.1
    y aligned :  number:52626	minLen:0.1	maxLen:0.1
    z aligned :  number:51548	minLen:0.1	maxLen:0.1
    other     :  number:0	minLen:1e+15	maxLen:-1e+15

Refining according to refineMeshDict

Read 72 cells from cellSet "constant/polyMesh/sets/floorvent564BBBA61D1156EE76433AB491E144D4"

Global Coordinate system:
     normal : (0 0 1)
     tan1   : (1 0 0)
     tan2   : (0 1 0)

Writing refined cells (144) to cellSet "constant/polyMesh/sets/refinedCells"

Writing map from new to old cell to "/media/cissy/cfd/OpenFOAM/root-2.3.1/run/tutorials/heatTransfer/buoyantBoussinesqSimpleFoam/benchmark_smartset/scalarTransportFoamTest/2D/1acu1rack/0/polyMesh/cellMap"

Mesh edge statistics:
    x aligned :  number:52706	minLen:0.1	maxLen:0.1
    y aligned :  number:52710	minLen:0.1	maxLen:0.1
    z aligned :  number:51646	minLen:0.05	maxLen:0.1
    other     :  number:0	minLen:1e+15	maxLen:-1e+15

End

